  8
    -0.000000 !GC
 C          0.0000000000        0.0000000000        0.0000000000
 C          1.5224104757        0.0000000000        0.0000000000
 H         -0.3824249265        1.0181275587        0.0000000000
 H         -0.3831741637       -0.5101201201       -0.8807518983
 H         -0.3812436815       -0.5083418651        0.8823252489
 H          1.9050018847        0.5086537979        0.8817481952
 H          1.9051718228        0.5085437630       -0.8817687206
 H          1.9040338939       -1.0181882973        0.0007389707
  8
    -0.000000 !GC
 C          0.0000000000        0.0000000000        0.0000000000
 C          1.5220953138        0.0000000000        0.0000000000
 H         -0.3822326462        1.0178895318        0.0000000000
 H         -0.3824640275       -0.5093622933       -0.8810740161
 H         -0.3814592516       -0.5087558093        0.8818889055
 H          1.9043625951       -1.0178183697       -0.0003762226
 H          1.9042126969        0.5085936345        0.8816469456
 H          1.9040779602        0.5089559731       -0.8815152071
