  11
        -30.28243607
 C         -2.8192810450       -0.4060149690        0.0002293318
 O         -1.3920404752       -0.6127698824       -0.0009208951
 C         -0.6041506771        0.4152091287       -0.0010140734
 O         -0.8795073795        1.5844750965       -0.0004189948
 C          0.8760393831       -0.0776955481       -0.0004137329
 F          1.7355502951        0.9415305454       -0.0259693135
 F          1.1507440525       -0.8063651022        1.0903275230
 F          1.1391789153       -0.8508279314       -1.0625761400
 H         -3.0438501363        0.6592675057       -0.0158228364
 H         -3.2076401660       -0.8745489681        0.9018692978
 H         -3.2114601893       -0.9033444301       -0.8840864971
