  11
  -30.2824360700000       6.781721654560685E-002 !
 C         -2.8192810450       -0.4060149690        0.0002293318
 O         -1.3920404752       -0.6127698824       -0.0009208951
 C         -0.6041506771        0.4152091287       -0.0010140734
 O         -0.8795073795        1.5844750965       -0.0004189948
 C          0.8760393831       -0.0776955481       -0.0004137329
 F          1.7355502951        0.9415305454       -0.0259693135
 F          1.1507440525       -0.8063651022        1.0903275230
 F          1.1391789153       -0.8508279314       -1.0625761400
 H         -3.0438501363        0.6592675057       -0.0158228364
 H         -3.2076401660       -0.8745489681        0.9018692978
 H         -3.2114601893       -0.9033444301       -0.8840864971
  11
  -30.2824360200000       6.781362844905277E-002 !
 C         -2.7651151675        0.0880804105       -0.6760948330
 O         -1.3339346021       -0.0817343684       -0.7245256305
 C         -0.6305000928        0.1715693586        0.3329353620
 O         -0.9920444314        0.5474278155        1.4150194888
 C          0.8747583011       -0.0893109727        0.0163621455
 F          1.3075308526        0.6844630387       -0.9884755795
 F          1.6509807352        0.1564945850        1.0723904827
 F          1.0873463655       -1.3604444850       -0.3506704738
 H         -3.0232983959        0.8208074404       -1.4375192153
 H         -3.0693237240        0.4260907191        0.3132238782
 H         -3.2067468698       -0.8771259287       -0.9140036280
  11
  -30.2824358000000       6.779784307953460E-002 !
 C         -2.7633489693        0.1217040480        0.6797478901
 O         -1.3316140608       -0.0425628833        0.7336848492
 C         -0.6319489773        0.1531221018       -0.3385059132
 O         -0.9979068538        0.4677104446       -1.4384995406
 C          0.8749411302       -0.0884704661       -0.0144416015
 F          1.3039871659        0.7158776494        0.9674506924
 F          1.0946779243       -1.3476827272        0.3884021871
 F          1.6496112597        0.1310934439       -1.0774189152
 H         -3.0226179280        0.8786325832        1.4166516950
 H         -3.2035681937       -0.8360373500        0.9491410638
 H         -3.0685047841        0.4260281499       -0.3203333086
  11
  -30.2824355000000       6.777632349716220E-002 !
 C         -2.7657369151        0.0815983393       -0.6745367452
 O         -1.3347076039       -0.0900471248       -0.7220937406
 C         -0.6301823058        0.1749987666        0.3317681237
 O         -0.9904954457        0.5640324243        1.4096043862
 C          0.8747118297       -0.0897301952        0.0166385779
 F          1.3108799315        0.6862152790       -0.9851306740
 F          1.6501474410        0.1506697322        1.0744607078
 F          1.0844986744       -1.3601649840       -0.3542211000
 H         -3.2086539238       -0.8868093202       -0.8967059939
 H         -3.0241192283        0.8025373360       -1.4471016831
 H         -3.0684815085        0.4352913881        0.3097673698
  11
  -30.2824353300000       6.776413209927690E-002 !
 C         -2.7647295317        0.1014007549        0.6766978459
 O         -1.3335704836       -0.0683904978        0.7270543865
 C         -0.6308881043        0.1644164991       -0.3357045301
 O         -0.9931723167        0.5200732372       -1.4243805249
 C          0.8747012718       -0.0900756175       -0.0155099221
 F          1.3129763468        0.7192857199        0.9586231959
 F          1.0856901165       -1.3472442816        0.3971626617
 F          1.6478146364        0.1146679780       -1.0824853892
 H         -3.2062652262       -0.8557388422        0.9451929660
 H         -3.0709674879        0.4093428017       -0.3217498993
 H         -3.0210503732        0.8573924441        1.4156010779
  11
  -30.2824352200000       6.775624471639601E-002 !
 C         -2.7642912527        0.0955853487       -0.6779094582
 O         -1.3328856463       -0.0721332050       -0.7270234670
 C         -0.6308585545        0.1671314124        0.3345448015
 O         -0.9937740736        0.5286608228        1.4210603351
 C          0.8747907756       -0.0888771637        0.0159683804
 F          1.3035024896        0.6825276629       -0.9922303561
 F          1.6516519255        0.1631416651        1.0700638241
 F          1.0908378717       -1.3607768568       -0.3469000588
 H         -3.0685932811        0.4353359860        0.3108086252
 H         -3.2054892942       -0.8703799070       -0.9134072501
 H         -3.0229470127        0.8260478516       -1.4412428461
  11
  -30.2824212700000       6.676338559332601E-002 !
 C         -2.7628254610        0.1249600936        0.6814900173
 O         -1.3306388517       -0.0347878189        0.7350326641
 C         -0.6320737986        0.1515423173       -0.3395050039
 O         -0.9990523435        0.4549651954       -1.4423276371
 C          0.8749529052       -0.0877648097       -0.0143046872
 F          1.3022750695        0.7143376206        0.9699930769
 F          1.0954556624       -1.3479387821        0.3856794381
 F          1.6503520614        0.1351913351       -1.0760462446
 H         -3.0718064728        0.4044529157       -0.3244940244
 H         -3.0223807335        0.8984877773        1.4008751024
 H         -3.1990435870       -0.8271931321        0.9754897215
  11
  -30.2824171400000       6.647224324481819E-002 !
 C         -2.8191387216       -0.4065457496        0.0073207762
 O         -1.3918510466       -0.6124662013        0.0072286254
 C         -0.6041121373        0.4155045375       -0.0037323299
 O         -0.8794340847        1.5847400139       -0.0152317115
 C          0.8760672248       -0.0776692721       -0.0003813098
 F          1.7357368375        0.9416401285       -0.0158135603
 F          1.1463942535       -0.8139020944        1.0862463524
 F          1.1429620358       -0.8436272156       -1.0669665638
 H         -3.2126121510       -0.9258017008       -0.8636518101
 H         -3.0444794138        0.6579137192       -0.0339791702
 H         -3.2053511028       -0.8529989868        0.9211162323
  11
  -30.2824158000000       6.637805365630518E-002 !
 C         -2.8194227586       -0.4064416430        0.0196195371
 O         -1.3920331165       -0.6120894615        0.0232575916
 C         -0.6041205647        0.4153991728       -0.0083582846
 O         -0.8792686284        1.5841522769       -0.0430493350
 C          0.8760672607       -0.0776750661       -0.0000099542
 F          1.7356829790        0.9417757735        0.0030678775
 F          1.1396310386       -0.8277608924        1.0784332421
 F          1.1500489416       -0.8297400582       -1.0750478211
 H         -3.2069400360       -0.8621897435        0.9281217625
 H         -3.2118864047       -0.9166527532       -0.8572144249
 H         -3.0449538977        0.6582975208       -0.0124541198
  11
  -30.2820968300000       4.736265628200755E-002 !
 C         -2.7621544881        0.0961920995       -0.6544814111
 O         -1.3337843185       -0.0847247789       -0.7360396606
 C         -0.6302414271        0.1690138170        0.3236724136
 O         -1.0053630855        0.5450652954        1.4002122309
 C          0.8766538818       -0.0902557614        0.0164293278
 F          1.3173660364        0.6931804445       -0.9773742707
 F          1.6452625747        0.1446208246        1.0804987612
 F          1.0908662834       -1.3577943198       -0.3612657341
 H         -3.1672388366       -0.5328262326        0.1370726177
 H         -3.1408415239       -0.1978978064       -1.6279451067
 H         -2.9871590411        1.1400568155       -0.4399585501
  11
  -30.2820764700000       4.635314898939238E-002 !
 C         -2.7599502991        0.1384436817        0.6583716594
 O         -1.3308743583       -0.0327110551        0.7484528734
 C         -0.6320667122        0.1455103308       -0.3297089472
 O         -1.0133218079        0.4402866963       -1.4291871135
 C          0.8771095282       -0.0884490945       -0.0137777830
 F          1.3108529641        0.7238359088        0.9592282301
 F          1.1023761568       -1.3443323726        0.3961181642
 F          1.6436676164        0.1254976248       -1.0838893671
 H         -3.1697898814       -0.5727159303       -0.0574811972
 H         -2.9877533962        1.1529497178        0.3338349567
 H         -3.1316203246       -0.0493872544        1.6603602631
  11
  -30.2820762400000       4.634186870958649E-002 !
 C         -2.7631422778        0.1028858368        0.6519875948
 O         -1.3354431071       -0.0818957016        0.7361061665
 C         -0.6302417227        0.1650961989       -0.3241352161
 O         -1.0042965745        0.5349769949       -1.4032000298
 C          0.8767696143       -0.0911626495       -0.0152283853
 F          1.3281920888        0.7305156891        0.9426153631
 F          1.0871921813       -1.3429506723        0.4127687587
 F          1.6392877526        0.0961014091       -1.0931806037
 H         -3.1480938500       -0.2218740034        1.6131521062
 H         -3.1644516201       -0.4985419918       -0.1625850132
 H         -2.9850848155        1.1537265697        0.4709867993
  11
  -30.2820713300000       4.610171299619759E-002 !
 C         -2.8152406809       -0.3795363004       -0.0066632861
 O         -1.3939663102       -0.6236526146       -0.0096920375
 C         -0.6042869092        0.4052795834        0.0018670606
 O         -0.8925682112        1.5705492088        0.0151378225
 C          0.8780853677       -0.0791386288       -0.0007908853
 F          1.7313359942        0.9451932236       -0.0365513968
 F          1.1603464460       -0.7980447603        1.0945237858
 F          1.1420493230       -0.8582118351       -1.0580698196
 H         -3.0908074030        0.1689607212        0.8930658999
 H         -3.2718636284       -1.3637302948       -0.0259195667
 H         -3.0889552337        0.2032469848       -0.8851761446
  11
  -30.2820710200000       4.608659225199100E-002 !
 C         -2.8152208557       -0.3794882832        0.0152223874
 O         -1.3938930387       -0.6234125316        0.0213801903
 C         -0.6042408249        0.4052998536       -0.0067377525
 O         -0.8925198290        1.5702821557       -0.0368864953
 C          0.8781009768       -0.0791525463        0.0000959984
 F          1.7314344168        0.9457438764       -0.0014656852
 F          1.1480173690       -0.8245080832        1.0802594470
 F          1.1541521578       -0.8322903415       -1.0733738317
 H         -3.2715537699       -1.3636715846        0.0399950878
 H         -3.0902125841        0.1633868593       -0.8882210114
 H         -3.0903531110        0.2083760541        0.8899564681
  11
  -30.2820709700000       4.608415388676058E-002 !
 C         -2.8152286382       -0.3794502666        0.0086601630
 O         -1.3940072811       -0.6236911828        0.0107518664
 C         -0.6043838359        0.4052585190       -0.0047493881
 O         -0.8926729562        1.5704720909       -0.0193953624
 C          0.8780922648       -0.0790858826       -0.0003644685
 F          1.7316854184        0.9454940026       -0.0129106993
 F          1.1515869395       -0.8156232123        1.0850567200
 F          1.1506292339       -0.8409399083       -1.0684136164
 H         -3.0902985859        0.1754810051       -0.8873196178
 H         -3.0892342163        0.1971487222        0.8910963193
 H         -3.2720522153       -1.3636103921        0.0208153399
  11
  -30.2820703300000       4.605295420397243E-002 !
 C         -2.7626943602        0.1073765360        0.6526464417
 O         -1.3346387518       -0.0738642001        0.7385078155
 C         -0.6305404724        0.1622494557       -0.3249255824
 O         -1.0057556791        0.5217587883       -1.4070728496
 C          0.8768097928       -0.0908676419       -0.0151006628
 F          1.3255648288        0.7292152937        0.9451132453
 F          1.0894151933       -1.3432967251        0.4100826989
 F          1.6400845684        0.1003983532       -1.0917501324
 H         -2.9856900692        1.1336751783        0.3643166229
 H         -3.1369394164       -0.1156331759        1.6464849615
 H         -3.1742634047       -0.5754643908       -0.0892656852
  11
  -30.2819400400000       4.012179515927194E-002 !
 C         -2.8218025491       -0.2620923322       -0.4014379255
 O         -1.3980258214       -0.4860780461       -0.4348432719
 C         -0.6140400981        0.3396211263        0.1796382117
 O         -0.8937609906        1.3230163849        0.8124356578
 C          0.8747813905       -0.0941040873        0.0070552950
 F          1.5881282854        0.8716310091       -0.5870114624
 F          1.4451045375       -0.3306342744        1.1958470292
 F          1.0182221927       -1.1998862080       -0.7270918060
 H         -3.2689362253       -1.1164283192        0.1023936726
 H         -3.1557820020       -0.2154982097       -1.4354249582
 H         -3.0438147174        0.6636471109        0.1272706616
  11
  -30.2816383400000       2.915604663934130E-002 !
 C         -2.8188109565       -0.2564624627       -0.3630099095
 O         -1.4004234026       -0.5092039295       -0.4203630942
 C         -0.6131362152        0.3392892986        0.1621552123
 O         -0.9045269195        1.3404190537        0.7592770328
 C          0.8770103557       -0.0937692628        0.0050628814
 F          1.6048262337        0.8843615942       -0.5487524158
 F          1.4236566108       -0.3645155413        1.1983038686
 F          1.0298168656       -1.1804677110       -0.7549649866
 H         -3.2719961152       -1.0422206303       -0.9585588678
 H         -3.0336218336        0.7294731358       -0.7729444434
 H         -3.1559592079       -0.2991576708        0.6717895010
