  12
    -0.907946 !GC
 C          0.0000000000        0.0000000000        0.0000000000
 O          1.4422470670        0.0000000000        0.0000000000
 C          2.0260404366        1.1851377574        0.0000000000
 C          3.5545845294        1.0755176474        0.0058709310
 Cl         4.0485066385        0.2092101299        1.4644329745
 Cl         4.0590745296        0.2030579775       -1.4458407337
 F          1.6461525585        1.9609127520       -1.0753603448
 F          1.6377834235        1.9653034533        1.0686805396
 H         -0.3557980653       -0.5297885975        0.8854190547
 H         -0.2181973569       -0.5527948385       -0.9040050730
 H         -0.4211930685        1.0063986036       -0.0416981159
 H          4.0085121723        2.0692064279        0.0056083578
  12
    -0.882959 !GC
 C          0.0000000000        0.0000000000        0.0000000000
 O          1.4421924373        0.0000000000        0.0000000000
 C          2.0258905251        1.1851745622        0.0000000000
 C          3.5544965548        1.0755151470        0.0041802558
 Cl         4.0502170866        0.2108880442        1.4632566648
 Cl         4.0599338281        0.2008781945       -1.4453572447
 F          1.6449367283        1.9609415723       -1.0750242504
 F          1.6377778819        1.9650704997        1.0690146426
 H         -0.3210864400       -0.5220070648        0.8973701356
 H         -0.3203814258       -0.5311825811       -0.8923078000
 H         -0.3557124545        1.0317406191       -0.0052201819
 H          4.0089501188        2.0687919466        0.0027107583
  12
    -0.873397 !GC
 C          0.0000000000        0.0000000000        0.0000000000
 O          1.4422012689        0.0000000000        0.0000000000
 C          2.0257513182        1.1852418344        0.0000000000
 C          3.5544122889        1.0761252979        0.0037290582
 Cl         4.0511103790        0.2073073622        1.4597316047
 Cl         4.0597526974        0.2062040993       -1.4490086434
 F          1.6443886561        1.9611939034       -1.0745899132
 F          1.6379134708        1.9648295779        1.0693850034
 H         -0.4225015834        1.0066453891        0.0203946415
 H         -0.2164868916       -0.5333175935        0.9158444386
 H         -0.3559438651       -0.5489778191       -0.8733464106
 H          4.0084355740        2.0696001578        0.0050580786
  12
    -0.845586 !GC
 C          0.0000000000        0.0000000000        0.0000000000
 O          1.4422034137        0.0000000000        0.0000000000
 C          2.0265973935        1.1846622035        0.0000000000
 C          3.5551144798        1.0742755475        0.0013218407
 Cl         4.0539406025        0.2113990884        1.4601387311
 Cl         4.0540199502        0.1981128287       -1.4502339471
 F          1.6443237807        1.9624730535       -1.0730547627
 F          1.6418398685        1.9636013277        1.0709700084
 H         -0.3559541211        1.0317134290       -0.0209537706
 H         -0.3220415139       -0.5085714802        0.9051750190
 H         -0.3190220907       -0.5444729487       -0.8848586964
 H          4.0093274329        2.0679374852       -0.0031910732
  12
    -0.496620 !GC
 C          0.0000000000        0.0000000000        0.0000000000
 O          1.4437486911        0.0000000000        0.0000000000
 C          2.0283687772        1.1893931087        0.0000000000
 C          3.5537391063        1.0280001631        0.0002717195
 Cl         4.3297821736        2.6203668427       -0.0083387993
 Cl         4.0149930178        0.1100204732        1.4373481029
 F          1.6630280877        1.9406676585       -1.0979536340
 F          1.6235087144        1.9736564582        1.0496122915
 H         -0.2502440743       -0.5173204621       -0.9219682512
 H         -0.3220627700        1.0377503211       -0.0300602232
 H         -0.4233965079       -0.5078284732        0.8689810574
 H          3.8617935070        0.4740453182       -0.8892710932
  12
    -0.481212 !GC
 C          0.0000000000        0.0000000000        0.0000000000
 O          1.4436789214        0.0000000000        0.0000000000
 C          2.0277981436        1.1897057886        0.0000000000
 C          3.5532865464        1.0296966945        0.0080307995
 Cl         4.0228464261        0.1024577015       -1.4200239613
 Cl         4.3302218530        2.6217172931        0.0088407973
 F          1.6284351253        1.9699059808       -1.0548289829
 F          1.6550834832        1.9443063940        1.0929035460
 H         -0.4250873775       -0.5266050911       -0.8570093598
 H         -0.3199323756        1.0386170248        0.0066656773
 H         -0.2502421061       -0.4958326226        0.9334284783
 H          3.8584040022        0.4821346283        0.9022541768
  12
    -0.475158 !GC
 C          0.0000000000        0.0000000000        0.0000000000
 O          1.4436943137        0.0000000000        0.0000000000
 C          2.0279392915        1.1895661667        0.0000000000
 C          3.5535608768        1.0298660329       -0.0026372186
 Cl         4.3291408417        2.6223886298       -0.0006878167
 Cl         4.0201325894        0.1028980409        1.4265459204
 F          1.6605036664        1.9414272982       -1.0964284178
 F          1.6237446153        1.9728483034        1.0509986554
 H         -0.4224605696       -0.5155109570       -0.8648395670
 H         -0.3228728073        1.0374580032        0.0206301630
 H         -0.2503165606       -0.5080410783        0.9268400260
 H          3.8614277470        0.4830567774       -0.8964980832
  12
    -0.471961 !GC
 C          0.0000000000        0.0000000000        0.0000000000
 O          1.4437247196        0.0000000000        0.0000000000
 C          2.0280881409        1.1896016046        0.0000000000
 C          3.5534369843        1.0290953137        0.0102031443
 Cl         4.0237836482        0.0988742898       -1.4157757375
 Cl         4.3286364947        2.6221457897        0.0097428994
 F          1.6301794913        1.9696383641       -1.0556212297
 F          1.6549282708        1.9447891404        1.0922181378
 H         -0.3584411507        1.0304769067       -0.0330316601
 H         -0.3216245234       -0.4987507060        0.9106512321
 H         -0.3172746351       -0.5545007312       -0.8790870056
 H          3.8568157809        0.4832515595        0.9062548766
  12
    -0.461478 !GC
 C          0.0000000000        0.0000000000        0.0000000000
 O          1.4438501283        0.0000000000        0.0000000000
 C          2.0280731133        1.1896539944        0.0000000000
 C          3.5533096983        1.0292172649        0.0102136195
 Cl         4.0234794280        0.1023248934       -1.4181388801
 Cl         4.3283554291        2.6224578493        0.0127839070
 F          1.6298634891        1.9700494294       -1.0552832369
 F          1.6550837987        1.9444845100        1.0925849489
 H         -0.2505280107       -0.5340026573       -0.9123053384
 H         -0.3247155004        1.0362067965       -0.0487378542
 H         -0.4207400726       -0.4921945257        0.8791442271
 H          3.8563706509        0.4811974504        0.9052280227
  12
    -0.459148 !GC
 C          0.0000000000        0.0000000000        0.0000000000
 O          1.4438294371        0.0000000000        0.0000000000
 C          2.0283371112        1.1896400988        0.0000000000
 C          3.5536287726        1.0284680280       -0.0003648388
 Cl         4.3295315136        2.6208039134       -0.0090435485
 Cl         4.0154600596        0.1108655238        1.4368377169
 F          1.6625109469        1.9407745248       -1.0977163067
 F          1.6235537776        1.9734197713        1.0497707495
 H         -0.3583187472       -0.5400739402        0.8781735742
 H         -0.2159023350       -0.5424126094       -0.9108731340
 H         -0.4211764955        1.0069533236       -0.0304430967
 H          3.8618571049        0.4743714176       -0.8897699400
  12
    -0.451392 !GC
 C          0.0000000000        0.0000000000        0.0000000000
 O          1.4437796017        0.0000000000        0.0000000000
 C          2.0281419962        1.1896245994        0.0000000000
 C          3.5535253832        1.0296063639        0.0161377618
 Cl         4.0310513319        0.0883882462       -1.3996548731
 Cl         4.3300383159        2.6220981569        0.0050985338
 F          1.6333336919        1.9670730437       -1.0589485304
 F          1.6510455262        1.9470198709        1.0891301966
 H         -0.4222596954        1.0068490439        0.0199809100
 H         -0.2140106095       -0.5328413808        0.9166793968
 H         -0.3587604756       -0.5497045586       -0.8716181211
 H          3.8539495875        0.4912828745        0.9175528302
  12
    -0.141551 !GC
 C          0.0000000000        0.0000000000        0.0000000000
 O          1.4468232228        0.0000000000        0.0000000000
 C          2.0354457901        1.1746264101        0.0000000000
 C          3.4854482922        1.1350955748       -0.5017987301
 Cl         4.3832681771       -0.0712071209        0.4302440266
 Cl         3.4686879353        0.7035589371       -2.2160837068
 F          1.3415019744        2.0967180173       -0.7766478492
 F          2.0033970193        1.7696962153        1.2378890002
 H         -0.4924277762       -0.9735887432        0.0665254668
 H         -0.2686981311        0.5160856406       -0.9157867686
 H         -0.2454292780        0.6216332018        0.8561919556
 H          3.9610377676        2.1117474983       -0.3865877970
  12
    -0.043620 !GC
 C          0.0000000000        0.0000000000        0.0000000000
 O          1.4474985877        0.0000000000        0.0000000000
 C          2.0466184913        1.1732118608        0.0000000000
 C          3.5734883173        1.0448233098        0.0011419840
 Cl         4.0623738811        0.1620320423        1.4513870466
 Cl         4.0651084404        0.1787226515       -1.4581653154
 F          1.6738711403        1.9600070443       -1.0716765492
 F          1.6721471833        1.9606082965        1.0710222926
 H         -0.4724904139       -0.9872446114        0.0117815854
 H         -0.2700497618        0.5451345659       -0.8976322240
 H         -0.2631247888        0.5667251393        0.8861742641
 H          4.0385342279        2.0332638116        0.0074145706
  12
    -0.042017 !GC
 C          0.0000000000        0.0000000000        0.0000000000
 O          1.4475159986        0.0000000000        0.0000000000
 C          2.0466184019        1.1732107393        0.0000000000
 C          3.5734472703        1.0441753581        0.0014178232
 Cl         4.0617558218        0.1644524648        1.4534491383
 Cl         4.0642269148        0.1743602386       -1.4564717414
 F          1.6740431909        1.9598069406       -1.0720396110
 F          1.6721480699        1.9607144079        1.0707273913
 H         -0.4703706038        0.5247172988       -0.8378404355
 H         -0.1628986847        0.5155381354        0.9342432909
 H         -0.3707085839       -1.0232624238        0.0477296590
 H          4.0391081861        2.0323117093        0.0051737595
  12
    -0.041654 !GC
 C          0.0000000000        0.0000000000        0.0000000000
 O          1.4475508203        0.0000000000        0.0000000000
 C          2.0462077219        1.1736243776        0.0000000000
 C          3.5730103201        1.0448134809        0.0064135500
 Cl         4.0554727899        0.1659265555        1.4612628803
 Cl         4.0694654282        0.1738993770       -1.4484210656
 F          1.6763904812        1.9579622757       -1.0747891665
 F          1.6679851965        1.9627139149        1.0680603193
 H         -0.3701148182       -1.0230586456       -0.0561527743
 H         -0.1629549193        0.5230213304       -0.9298878753
 H         -0.4712165657        0.5172336506        0.8415697360
 H          4.0387912660        2.0327712356        0.0116108339
  12
    -0.039707 !GC
 C          0.0000000000        0.0000000000        0.0000000000
 O          1.4474819338        0.0000000000        0.0000000000
 C          2.0465387065        1.1732525971        0.0000000000
 C          3.5735666078        1.0449141962        0.0016635556
 Cl         4.0642661312        0.1684343047        1.4549641162
 Cl         4.0694338723        0.1721306376       -1.4522852703
 F          1.6745321684        1.9590357579       -1.0728570866
 F          1.6708776983        1.9612918484        1.0698848526
 H         -0.3704602488        0.4749951418       -0.9084161521
 H         -0.3841510638        0.4779105492        0.8988088300
 H         -0.2524402113       -1.0558421190       -0.0188304116
 H          4.0391793955        2.0329938508        0.0040288898
  12
    -0.039247 !GC
 C          0.0000000000        0.0000000000        0.0000000000
 O          1.4474265471        0.0000000000        0.0000000000
 C          2.0467832593        1.1728932547        0.0000000000
 C          3.5736332072        1.0430966012        0.0024956586
 Cl         4.0602188738        0.1676745163        1.4580581840
 Cl         4.0651469220        0.1688778206       -1.4521091916
 F          1.6751000372        1.9594393804       -1.0727179720
 F          1.6719703196        1.9611945200        1.0702040184
 H         -0.2627120276       -1.0521983705       -0.0035937276
 H         -0.3727318733        0.5001748562       -0.8933148433
 H         -0.3727382970        0.4927924563        0.8973527620
 H          4.0393862733        2.0311848054        0.0038836638
  12
    -0.036250 !GC
 C          0.0000000000        0.0000000000        0.0000000000
 O          1.4474179678        0.0000000000        0.0000000000
 C          2.0466456417        1.1729637188        0.0000000000
 C          3.5735982359        1.0443561727        0.0017693145
 Cl         4.0616804879        0.1616725418        1.4524586138
 Cl         4.0659133503        0.1785858153       -1.4574303339
 F          1.6743848171        1.9598988204       -1.0719189533
 F          1.6721021905        1.9608451207        1.0708698107
 H         -0.3677271726        0.4882244092       -0.9019020331
 H         -0.3751933715        0.5054493485        0.8891891250
 H         -0.2654423187       -1.0512660279        0.0103885784
 H          4.0383101655        2.0329411274        0.0084763878
  12
    -0.021375 !GC
 C          0.0000000000        0.0000000000        0.0000000000
 O          1.4438043301        0.0000000000        0.0000000000
 C          2.0277831069        1.1897581497        0.0000000000
 C          3.5531592433        1.0298185765        0.0080413834
 Cl         4.0225380568        0.1059117438       -1.4223801273
 Cl         4.3299448621        2.6220251533        0.0118801665
 F          1.6281193244        1.9703166610       -1.0544906061
 F          1.6552394429        1.9440016429        1.0932700842
 H         -0.3190604545       -0.5182982236        0.9004499630
 H         -0.3230243652       -0.5349894989       -0.8891725139
 H         -0.3554739006        1.0317668102       -0.0096872840
 H          3.8579586662        0.4800833745        0.9012235790
  12
    -0.021000 !GC
 C          0.0000000000        0.0000000000        0.0000000000
 O          1.4437401118        0.0000000000        0.0000000000
 C          2.0282292625        1.1894619566        0.0000000000
 C          3.5537258376        1.0292574715       -0.0004650061
 Cl         4.3292519943        2.6219188806       -0.0006071908
 Cl         4.0157037494        0.1038977459        1.4314543042
 F          1.6622843455        1.9411350201       -1.0971737551
 F          1.6236304557        1.9733161733        1.0502841834
 H         -0.3557588292        1.0316087882       -0.0191732120
 H         -0.3245638502       -0.5104846418        0.9030000365
 H         -0.3173489561       -0.5429122948       -0.8862848543
 H          3.8620012185        0.4802983559       -0.8930546678
  12
    -0.019112 !GC
 C          0.0000000000        0.0000000000        0.0000000000
 O          1.4438253998        0.0000000000        0.0000000000
 C          2.0284319797        1.1895203655        0.0000000000
 C          3.5536648247        1.0290103594        0.0183098195
 Cl         4.0319534303        0.0848253309       -1.3953732471
 Cl         4.3284628600        2.6225115132        0.0059779071
 F          1.6350815970        1.9668022814       -1.0597346377
 F          1.6508943235        1.9475017648        1.0884410920
 H         -0.3555440774       -0.5295131276        0.8857924785
 H         -0.2157214695       -0.5537573164       -0.9039860600
 H         -0.4239367625        1.0050832497       -0.0431434922
 H          3.8523390510        0.4924226777        0.9215262153
  12
    -0.014487 !GC
 C          0.0000000000        0.0000000000        0.0000000000
 O          1.4422382354        0.0000000000        0.0000000000
 C          2.0261796316        1.1850704548        0.0000000000
 C          3.5546679930        1.0749078123        0.0063223113
 Cl         4.0476102636        0.2127984857        1.4679489028
 Cl         4.0592489688        0.1977344539       -1.4421819492
 F          1.6467008851        1.9606600176       -1.0757941534
 F          1.6376482690        1.9655442907        1.0683098652
 H         -0.2526014685       -0.5294843108       -0.9141561463
 H         -0.3220733364        1.0371632778       -0.0439007206
 H         -0.4209745252       -0.4959596660        0.8769411225
 H          4.0090299340        2.0683922936        0.0032607476
  12
    -0.000608 !GC
 C          0.0000000000        0.0000000000        0.0000000000
 O          1.4469478745        0.0000000000        0.0000000000
 C          2.0356205841        1.1746201922        0.0000000000
 C          3.4894721636        1.1321754628       -0.4900230423
 Cl         4.3803244707       -0.0642869838        0.4610714678
 Cl         3.4867408528        0.6844388030       -2.2002998158
 F          1.3481072607        2.0937853633       -0.7853077058
 F          1.9943699588        1.7742951317        1.2355410153
 H         -0.4930806523        0.4679276046       -0.8565865477
 H         -0.1432523145        0.5764252817        0.9041270941
 H         -0.3686429517       -1.0158888354        0.1356802400
 H          3.9624982390        2.1108418401       -0.3801564351
