  12
        -31.10225653
 C         -2.4709400326        0.0010630266        1.2926371535
 O         -1.0612836838       -0.0004080408        0.9638783315
 C         -0.7440893132       -0.0005626210       -0.3146695965
 C          0.7722110019        0.0000442993       -0.5355559490
 Cl         1.4468991835        1.4555818543        0.2046623044
 Cl         1.4483523522       -1.4542931261        0.2056795403
 F         -1.2859623365       -1.0727282265       -0.9958472770
 F         -1.2871978002        1.0701352153       -0.9970080398
 H         -2.4925992656       -0.0072968094        2.3770275530
 H         -2.9474613226       -0.8902206655        0.8852709866
 H         -2.9420468723        0.9013801367        0.8991118678
 H          1.0014306407       -0.0003307321       -1.6036447453
