  12
  -31.1022565300000       0.189784968811546      !
 C         -2.4709400326        0.0010630266        1.2926371535
 O         -1.0612836838       -0.0004080408        0.9638783315
 C         -0.7440893132       -0.0005626210       -0.3146695965
 C          0.7722110019        0.0000442993       -0.5355559490
 Cl         1.4468991835        1.4555818543        0.2046623044
 Cl         1.4483523522       -1.4542931261        0.2056795403
 F         -1.2859623365       -1.0727282265       -0.9958472770
 F         -1.2871978002        1.0701352153       -0.9970080398
 H         -2.4925992656       -0.0072968094        2.3770275530
 H         -2.9474613226       -0.8902206655        0.8852709866
 H         -2.9420468723        0.9013801367        0.8991118678
 H          1.0014306407       -0.0003307321       -1.6036447453
  12
  -31.1022560100000       0.189680566212178      !
 C         -2.4709642030        0.0009825555        1.2926795079
 O         -1.0613596672       -0.0008874491        0.9638339254
 C         -0.7441522389       -0.0006264455       -0.3146919181
 C          0.7721222040       -0.0001707782       -0.5355641462
 Cl         1.4469549552        1.4555280859        0.2041831775
 Cl         1.4484504983       -1.4540940148        0.2062130143
 F         -1.2861376413       -1.0725394014       -0.9962061573
 F         -1.2871404223        1.0703242967       -0.9967241621
 H         -2.9416242962        0.9013869987        0.8989290360
 H         -2.4926446405       -0.0070106053        2.3769453865
 H         -2.9476345269       -0.8902718422        0.8856082449
 H          1.0013376511       -0.0009157671       -1.6036510470
  12
  -31.1022488200000       0.188242872849174      !
 C         -2.4707875774       -0.0002582124        1.2930439576
 O         -1.0612730123        0.0000202623        0.9637234472
 C         -0.7441304207       -0.0004500966       -0.3148298739
 C          0.7721857939       -0.0001968425       -0.5355800182
 Cl         1.4471539836        1.4555128600        0.2040133210
 Cl         1.4480174994       -1.4541826612        0.2065550291
 F         -1.2862448008       -1.0723014207       -0.9962203974
 F         -1.2868591730        1.0704815220       -0.9971486953
 H         -2.9444603227       -0.8963877840        0.8933019576
 H         -2.9450985000        0.8951133975        0.8923347356
 H         -2.4919251528        0.0003041132        2.3773413593
 H          1.0013684571       -0.0010506160       -1.6036876805
  12
  -31.1013378000000       7.178649320553322E-002 !
 C         -2.7590257159        0.5651905132        1.0706696070
 O         -1.3592533782        0.8312380104        0.8066916615
 C         -0.7598382866        0.0593200128       -0.0829845030
 C          0.7071518978        0.4760113992       -0.2447009753
 Cl         1.4997972307        0.3440131095        1.3281611582
 Cl         1.5022521161       -0.5604645010       -1.4411482697
 F         -0.8530015986       -1.2750091217        0.2280517199
 F         -1.3761106740        0.1204058399       -1.3175954389
 H         -3.3389080055        0.6935477004        0.1572189882
 H         -3.0342696386        1.3048579614        1.8144236948
 H         -2.8794697429       -0.4446365774        1.4615956565
 H          0.7561978104        1.5139356425       -0.5809445323
  12
  -31.1013377900000       7.178573356852161E-002 !
 C         -2.7587733557       -0.5655077327        1.0717211303
 O         -1.3587944824       -0.8307222311        0.8079527200
 C         -0.7599536485       -0.0598362647       -0.0830216066
 C          0.7073478135       -0.4757046094       -0.2441042583
 Cl         1.5022750540        0.5596247115       -1.4416239820
 Cl         1.5000961215       -0.3415842079        1.3285032318
 F         -1.3762682280       -0.1232975508       -1.3174835448
 F         -0.8541100275        1.2749173048        0.2258576296
 H         -3.3386134515       -0.6952319206        0.1584367484
 H         -2.8799962369        0.4446350992        1.4616245034
 H         -3.0334388819       -1.3046942695        1.8161842086
 H          0.7568900207       -1.5139839196       -0.5792200618
  12
  -31.1013376400000       7.177433997898690E-002 !
 C         -2.7596415975        0.5648140969        1.0707407916
 O         -1.3599553955        0.8312511849        0.8066923491
 C         -0.7602907463        0.0595695668       -0.0830661409
 C          0.7069735799        0.4758808902       -0.2443798605
 Cl         1.5006330608        0.3432282001        1.3278811201
 Cl         1.5027172439       -0.5596952903       -1.4410183587
 F         -0.8533650651       -1.2747099004        0.2281262156
 F         -1.3767264511        0.1203700239       -1.3176616232
 H         -3.0351935830        1.3048981352        1.8138643995
 H         -2.8793639348       -0.4446297647        1.4626908677
 H         -3.3397839596        0.6920945603        0.1573391153
 H          0.7565886903        1.5137868603       -0.5801895089
  12
  -31.1013372400000       7.174396591316450E-002 !
 C         -2.7592748157        0.5645242094        1.0709438649
 O         -1.3595664249        0.8313231614        0.8067062266
 C         -0.7599383147        0.0596249214       -0.0830673282
 C          0.7070292783        0.4763805782       -0.2450611329
 Cl         1.5001181940        0.3444439558        1.3275575925
 Cl         1.5024010341       -0.5612431893       -1.4403112951
 F         -0.8531797592       -1.2748153391        0.2277458364
 F         -1.3761608013        0.1209099416       -1.3176546180
 H         -2.8780561695       -0.4428052949        1.4683802317
 H         -3.3391545050        0.6855861123        0.1565148032
 H         -3.0368645811        1.3083205020        1.8097278172
 H          0.7559916851        1.5142396529       -0.5818785690
  12
  -31.1013371400000       7.173637440528390E-002 !
 C         -2.7588295595       -0.5649127616        1.0716883418
 O         -1.3592834031       -0.8317748927        0.8072424942
 C         -0.7598662358       -0.0602417208       -0.0828298152
 C          0.7074852628       -0.4759861048       -0.2437639778
 Cl         1.5017978738        0.5583040377       -1.4426138690
 Cl         1.5002322028       -0.3400178658        1.3288234716
 F         -1.3759370429       -0.1222429224       -1.3175162547
 F         -0.8534828969        1.2742104417        0.2273511452
 H         -2.8773793950        0.4420334527        1.4704084303
 H         -3.0368231583       -1.3097186310        1.8091936396
 H         -3.3380608882       -0.6844607621        0.1567804576
 H          0.7567906130       -1.5145197276       -0.5780133835
  12
  -31.1013369700000       7.172347068554669E-002 !
 C         -2.7590390026       -0.5647025868        1.0716969444
 O         -1.3594328285       -0.8317164740        0.8073296233
 C         -0.7598774736       -0.0603351858       -0.0827463772
 C          0.7073605488       -0.4762527866       -0.2438960330
 Cl         1.5020572424        0.5582845203       -1.4422121844
 Cl         1.5002526831       -0.3397914837        1.3284477151
 F         -1.3758355826       -0.1225647761       -1.3174549466
 F         -0.8537484096        1.2741644652        0.2272000304
 H         -3.0374228571       -1.3100300044        1.8085152031
 H         -3.3381488245       -0.6831080304        0.1564964066
 H         -2.8774781828        0.4417930382        1.4713385593
 H          0.7573135590       -1.5148039406       -0.5781064822
  12
  -31.0957308700000       1.902287352571492E-004 !
 C         -1.9575105178        1.4098241198        1.1897192775
 O         -1.6775151126        0.0313217889        0.8568875680
 C         -0.8453050159       -0.1997902576       -0.1574435181
 C          0.5431668809        0.4712498677       -0.0995664651
 Cl         1.2669974483        0.1168709893        1.4772350179
 Cl         1.5583816876       -0.1577606036       -1.4142442139
 F         -0.7095802808       -1.5429426625       -0.2577354161
 F         -1.4203303148        0.1731203598       -1.3637085613
 H         -1.1039004189        1.8564023124        1.6978479236
 H         -2.8072751863        1.3484059510        1.8627273136
 H         -2.2241905570        1.9686246000        0.2932901902
 H          0.4566561656        1.5526653481       -0.2232738813
  12
  -31.0957308500000       1.902247093180915E-004 !
 C         -1.9574126275        1.4098093017        1.1898127191
 O         -1.6776093145        0.0313107220        0.8568155509
 C         -0.8453121072       -0.1998064523       -0.1574417608
 C          0.5431334621        0.4712648845       -0.0994657740
 Cl         1.2670231696        0.1165952876        1.4772482966
 Cl         1.5583243587       -0.1574457782       -1.4142842343
 F         -0.7095652557       -1.5429632440       -0.2577355495
 F         -1.4202607680        0.1730898725       -1.3637573583
 H         -2.2237653091        1.9688205260        0.2934070880
 H         -1.1038568465        1.8561331095        1.6982467655
 H         -2.8073456285        1.3484038627        1.8626027159
 H          0.4565870195        1.5526934491       -0.2229932397
  12
  -31.0957307700000       1.902086064153098E-004 !
 C         -1.9564156640       -1.4094048717        1.1919333501
 O         -1.6775670055       -0.0312160047        0.8568766381
 C         -0.8454661820        0.1989518797       -0.1577483742
 C          0.5434658255       -0.4710155929       -0.0986967680
 Cl         1.5581422708        0.1563583413       -1.4145580239
 Cl         1.2671950615       -0.1133759033        1.4774379611
 F         -1.4201853698       -0.1761788678       -1.3634777165
 F         -0.7106515365        1.5420434841       -0.2600831004
 H         -2.2223609602       -1.9699056652        0.2963601302
 H         -2.8064096166       -1.3476064381        1.8646041674
 H         -1.1025522177       -1.8543795388        1.7010258691
 H          0.4576784898       -1.5526978121       -0.2205396549
  12
  -31.0957307200000       1.901985427931204E-004 !
 C         -1.9566449003       -1.4093997030        1.1920879584
 O         -1.6776819396       -0.0311757642        0.8568998313
 C         -0.8453466944        0.1989056317       -0.1575915533
 C          0.5434952114       -0.4713138868       -0.0988056245
 Cl         1.5580725982        0.1564271625       -1.4145786550
 Cl         1.2670822128       -0.1132860714        1.4772654764
 F         -1.4198649136       -0.1761851839       -1.3634180154
 F         -0.7104140476        1.5419930718       -0.2599451012
 H         -2.8067614782       -1.3476711677        1.8643502911
 H         -1.1034053050       -1.8550387718        1.7014414464
 H         -2.2226300489       -1.9699401589        0.2967335424
 H          0.4578379096       -1.5530452439       -0.2207906164
  12
  -31.0957307000000       1.901945174937613E-004 !
 C         -1.9564557460       -1.4095164326        1.1916539771
 O         -1.6772522424       -0.0312834226        0.8570610871
 C         -0.8452500725        0.1990046181       -0.1576303733
 C          0.5436062642       -0.4711112986       -0.0989010661
 Cl         1.5579405480        0.1569161431       -1.4147299687
 Cl         1.2669606296       -0.1139193143        1.4775051017
 F         -1.4199970506       -0.1761023809       -1.3633098995
 F         -0.7104723231        1.5421185099       -0.2598924342
 H         -1.1025640688       -1.8550453102        1.7002234876
 H         -2.2230111724       -1.9695770271        0.2959612091
 H         -2.8061238678       -1.3476665407        1.8647479045
 H          0.4577010358       -1.5527510513       -0.2211231489
  12
  -31.0957305500000       1.901643304606605E-004 !
 C         -1.9594848432        1.4096559236        1.1893324158
 O         -1.6766932238        0.0313395835        0.8577816582
 C         -0.8447829997       -0.1993597543       -0.1570248119
 C          0.5435559769        0.4719179866       -0.1003914734
 Cl         1.2675846085        0.1193362852        1.4767216158
 Cl         1.5572828780       -0.1605187704       -1.4145036959
 F         -0.7079774662       -1.5423605965       -0.2568822782
 F         -1.4205625331        0.1724751025       -1.3631418194
 H         -2.8082987222        1.3470261005        1.8632758394
 H         -2.2291411899        1.9669869373        0.2929329019
 H         -1.1066341094        1.8591164814        1.6962465782
 H          0.4571498272        1.5530915746       -0.2261823486
  12
  -31.0949354600000       8.198435685446769E-005 !
 C         -1.4135064918        0.3777405732        1.7149968421
 O         -1.5111197089       -0.4651189917        0.5471387185
 C         -0.8162661350       -0.1265963160       -0.5342269657
 C          0.7240956502       -0.0286092850       -0.4507638213
 Cl         1.2392871406        1.5026106908        0.2687872971
 Cl         1.3159338099       -1.4109449716        0.4861243642
 F         -1.1029011677       -1.0589433192       -1.4837066534
 F         -1.2766433666        1.0537116342       -1.0883638715
 H         -1.5865946536        1.4195275103        1.4465052057
 H         -0.4423624351        0.2572321509        2.1937259421
 H         -2.2041592193        0.0153992428        2.3646258985
 H          1.1364681794       -0.0865159672       -1.4613430126
  12
  -31.0949354300000       8.198175423316690E-005 !
 C         -1.4139718895        0.3776928615        1.7150373080
 O         -1.5112270610       -0.4652342866        0.5471851546
 C         -0.8163180123       -0.1266681343       -0.5341592564
 C          0.7240472563       -0.0285578659       -0.4506937951
 Cl         1.2396083586        1.5026661915        0.2686130175
 Cl         1.3159655776       -1.4108903229        0.4861356134
 F         -1.1030019914       -1.0589452030       -1.4837129320
 F         -1.2766588752        1.0536587438       -1.0882144253
 H         -0.4429005300        0.2574037285        2.1938824476
 H         -2.2046232205        0.0152292959        2.3645996739
 H         -1.5871734680        1.4194453553        1.4465278270
 H          1.1362706257       -0.0866356405       -1.4613206360
  12
  -31.0949354200000       8.198088671099093E-005 !
 C         -1.4128078460       -0.3766965049        1.7154647727
 O         -1.5113803951        0.4644937818        0.5464898190
 C         -0.8163156686        0.1251239378       -0.5344486322
 C          0.7241022769        0.0286101438       -0.4507743245
 Cl         1.3147683781        1.4128854677        0.4840408251
 Cl         1.2401937934       -1.5012396835        0.2710839245
 F         -1.2756973781       -1.0563183345       -1.0870450448
 F         -1.1036999866        1.0560001924       -1.4851347719
 H         -0.4417487319       -0.2544858272        2.1939351036
 H         -1.5848516664       -1.4190108689        1.4483834167
 H         -2.2037026588       -0.0143568504        2.3647312006
 H          1.1363072740        0.0853579368       -1.4614799039
  12
  -31.0949354000000       8.197915169448711E-005 !
 C         -1.4129123027       -0.3766232274        1.7155269479
 O         -1.5114308605        0.4644708644        0.5464649176
 C         -0.8162986891        0.1251383254       -0.5344356221
 C          0.7241192320        0.0285975839       -0.4507810976
 Cl         1.3147421056        1.4128831963        0.4840673344
 Cl         1.2402638563       -1.5012570227        0.2710209174
 F         -1.2756599212       -1.0563172198       -1.0870041570
 F         -1.1037043136        1.0559906042       -1.4851409866
 H         -1.5847666541       -1.4189653277        1.4485366330
 H         -2.2040953362       -0.0143739229        2.3645510318
 H         -0.4419381940       -0.2541865518        2.1942260651
 H          1.1362810766        0.0853485000       -1.4615336359
  12
  -31.0949353900000       8.197828419985081E-005 !
 C         -1.4125322234        0.3779438503        1.7149877882
 O         -1.5110047457       -0.4649392874        0.5470607907
 C         -0.8161566355       -0.1267237050       -0.5343993686
 C          0.7241731892       -0.0288133372       -0.4510866683
 Cl         1.2382807539        1.5024253968        0.2690969901
 Cl         1.3161190412       -1.4108615848        0.4861600296
 F         -1.1030094426       -1.0589756027       -1.4839071040
 F         -1.2760458638        1.0538051303       -1.0884668744
 H         -2.2026015707        0.0159452636        2.3653113374
 H         -1.5854294634        1.4199486582        1.4471000766
 H         -0.4414075699        0.2572173011        2.1935156158
 H          1.1367890497       -0.0863629150       -1.4615944721
  12
  -31.0949353700000       8.197654923842575E-005 !
 C         -1.4131195122       -0.3767242695        1.7154547596
 O         -1.5113425808        0.4645913930        0.5465292232
 C         -0.8162846941        0.1251747579       -0.5344168026
 C          0.7241381726        0.0286839601       -0.4508831034
 Cl         1.3148595867        1.4128014438        0.4841164876
 Cl         1.2401971345       -1.5012034764        0.2709469387
 F         -1.2756387136       -1.0563167732       -1.0868451118
 F         -1.1037454365        1.0559507887       -1.4851833955
 H         -2.2040098101       -0.0141270543        2.3646584925
 H         -0.4420484380       -0.2549779081        2.1939677959
 H         -1.5854550395       -1.4189641850        1.4483029376
 H          1.1362595398        0.0854534436       -1.4616436560
  12
  -31.0935037700000       1.802070701445582E-005 !
 C         -1.9491808440        0.6956767751        1.7025206911
 O         -1.8115044654        0.7643763195        0.2667777648
 C         -0.8514883900        0.0528608747       -0.3304271050
 C          0.6093548440        0.4885566927       -0.0662423149
 Cl         1.1472959108       -0.0697166185        1.5216005713
 Cl         1.6719153806       -0.1942544942       -1.3228936072
 F         -0.9760521834       -1.2915524519       -0.0747558240
 F         -1.0905849072        0.1648099484       -1.6651417978
 H         -2.9264520110        1.1299373520        1.8902950138
 H         -1.1695041940        1.2792956453        2.1891070270
 H         -1.9217770352       -0.3395360392        2.0399863740
 H          0.6759257602        1.5782159211       -0.1091039248
  12
  -31.0935037700000       1.802070701445582E-005 !
 C         -1.9494197176        0.6954136682        1.7024858157
 O         -1.8114258583        0.7645871600        0.2668271920
 C         -0.8515650752        0.0529187558       -0.3304892465
 C          0.6093834078        0.4883493610       -0.0664565056
 Cl         1.1473983833       -0.0690726873        1.5216204972
 Cl         1.6720456643       -0.1949174175       -1.3227809561
 F         -0.9761868792       -1.2914546498       -0.0747361605
 F         -1.0907355977        0.1648970235       -1.6652143474
 H         -1.9221245997       -0.3399513187        2.0395415150
 H         -2.9265989596        1.1296805713        1.8901623806
 H         -1.1699379019        1.2789913035        2.1893415583
 H          0.6762183756        1.5779449778       -0.1095035365
  12
  -31.0935036900000       1.801918152543263E-005 !
 C         -1.9477414541       -0.6948137333        1.7039775172
 O         -1.8116475923       -0.7643888596        0.2681300379
 C         -0.8516597101       -0.0539118795       -0.3303233622
 C          0.6093144892       -0.4881583245       -0.0642684030
 Cl         1.6719640808        0.1898432918       -1.3234140653
 Cl         1.1470654405        0.0764229349        1.5214583002
 F         -1.0902350538       -0.1689313468       -1.6648206181
 F         -0.9770176227        1.2910847657       -0.0777891800
 H         -2.9247522270       -1.1290332885        1.8930964587
 H         -1.9200483400        0.3405982343        2.0407857418
 H         -1.1675345627       -1.2780589413        2.1901104091
 H          0.6761664918       -1.5779561205       -0.1028588369
  12
  -31.0935036500000       1.801841882938145E-005 !
 C         -1.9470216705       -0.6954598375        1.7041205482
 O         -1.8121044932       -0.7637949764        0.2681052828
 C         -0.8517920785       -0.0537373845       -0.3303056312
 C          0.6090471214       -0.4881336484       -0.0635987742
 Cl         1.6720838028        0.1876990371       -1.3235799260
 Cl         1.1468710793        0.0783938690        1.5214495333
 F         -1.0900928462       -0.1689760031       -1.6647993062
 F         -0.9769612691        1.2913894405       -0.0781322905
 H         -1.1667682016       -1.2796111145        2.1890989885
 H         -2.9241184620       -1.1293236150        1.8936439056
 H         -1.9184544865        0.3396384763        2.0418700961
 H          0.6754940480       -1.5780597785       -0.1007735203
  12
  -31.0935036100000       1.801765616561286E-005 !
 C         -1.9468893495        0.6979965109        1.7030901620
 O         -1.8131534316        0.7616913392        0.2667778103
 C         -0.8516998350        0.0519993263       -0.3301479917
 C          0.6083857900        0.4889820926       -0.0640709176
 Cl         1.1474605312       -0.0747044248        1.5215956374
 Cl         1.6707856765       -0.1880722551       -1.3239257899
 F         -0.9748474547       -1.2929412024       -0.0753815720
 F         -1.0897224296        0.1644701650       -1.6649259463
 H         -1.1667211738        1.2844624114        2.1852394355
 H         -1.9161644200       -0.3359575101        2.0439851395
 H         -2.9244495949        1.1312207209        1.8924322806
 H          0.6734448792        1.5789300026       -0.1031543424
  12
  -31.0935035900000       1.801727484586799E-005 !
 C         -1.9469340870       -0.6956370304        1.7041663933
 O         -1.8123094993       -0.7635289794        0.2680956377
 C         -0.8518602508       -0.0536485132       -0.3302791478
 C          0.6089739552       -0.4880777004       -0.0635396780
 Cl         1.6720199362        0.1875914589       -1.3236231227
 Cl         1.1470480709        0.0783167804        1.5214804891
 F         -1.0901351953       -0.1689524833       -1.6647710958
 F         -0.9769323308        1.2915442122       -0.0782286079
 H         -1.9184661554        0.3393685501        2.0422027064
 H         -1.1666010394       -1.2798539617        2.1889622908
 H         -2.9239672773       -1.1296234517        1.8936814556
 H          0.6753558133       -1.5779488378       -0.1007056679
