  9
    -0.000002 !GC
 C          0.0000000000        0.0000000000        0.0000000000
 C          1.4917491850        0.0000000000        0.0000000000
 C          2.2424612986        1.0857252107        0.0000000000
 H         -0.3580929420       -0.4918127840       -0.9065092904
 H         -0.3733321759        1.0220325932       -0.0426827276
 H         -0.4048462798       -0.5140572907        0.8654823175
 H          1.9542684227       -0.9790494100        0.0015021674
 H          3.3181300941        1.0377165848       -0.0065978207
 H          1.8090861358        2.0726153337       -0.0012619056
  9
    -0.000002 !GC
 C          0.0000000000        0.0000000000        0.0000000000
 C          1.4917551148        0.0000000000        0.0000000000
 C          2.2425444120        1.0857150962        0.0000000000
 H         -0.3735124967        1.0221509450        0.0498624527
 H         -0.3574559505       -0.4975813540        0.9029523631
 H         -0.4054463219       -0.5087136454       -0.8683239408
 H          1.9542791462       -0.9790363799        0.0043860854
 H          3.3178998555        1.0377710684        0.0191725203
 H          1.8094869031        2.0725516925        0.0120659037
