  9
  -9.44269513000000       0.333345091157613      !
 C          1.2480190973       -0.1792631439        0.0000040866
 C         -0.1064654827        0.4456322316       -0.0000112961
 C         -1.2431321217       -0.2252401436        0.0000051961
 H          1.8066176892        0.1397350338        0.8788989329
 H          1.8065786694        0.1396136431       -0.8789654042
 H          1.1764639740       -1.2637452513        0.0000748227
 H         -0.1163128939        1.5283464730        0.0000279043
 H         -2.1996082182        0.2688940195        0.0000134747
 H         -1.2633182487       -1.3029410646       -0.0000257394
  9
  -9.44269508000000       0.333327454421194      !
 C          1.2480301644       -0.1792640844       -0.0000105088
 C         -0.1064759829        0.4456329186       -0.0000258914
 C         -1.2431375869       -0.2252367454       -0.0000093993
 H          1.1764932968       -1.2637501369        0.0000280360
 H          1.8066805945        0.1396812310        0.8788767222
 H          1.8065909577        0.1396186368       -0.8789693815
 H         -0.1163391035        1.5283479456       -0.0000524027
 H         -2.1996391271        0.2689101877        0.0008851922
 H         -1.2633072777       -1.3029424837       -0.0002224137
  9
  -9.44269508000000       0.333327454421194      !
 C          1.2480202042       -0.1792692974        0.0003033335
 C         -0.1064773170        0.4456421500        0.0002879504
 C         -1.2431265092       -0.2252417496        0.0003044429
 H          1.8060147868        0.1383601221       -0.8794825179
 H          1.1765105830       -1.2637710151        0.0018846592
 H          1.8072066601        0.1409968937        0.8783549667
 H         -0.1163504050        1.5283683022       -0.0031610621
 H         -2.1996198834        0.2689083073       -0.0019481605
 H         -1.2632798213       -1.3029854824       -0.0063214666
