  11
    -1.903975 !GC
 C          0.0000000000        0.0000000000        0.0000000000
 C          1.5073679928        0.0000000000        0.0000000000
 Cl         2.1416791744        1.6869722605        0.0000000000
 C         -0.6051648517       -0.7160724931       -1.1942799458
 Cl        -0.1837888201       -2.4648686619       -1.1942618971
 H         -0.3333583496       -0.4671941289        0.9279818006
 H         -0.3342496451        1.0393809303       -0.0238422924
 H          1.8994247699       -0.4789297128        0.8945642595
 H          1.8869231731       -0.4757160519       -0.9030746633
 H         -0.2293537747       -0.3114642157       -2.1321335943
 H         -1.6916751154       -0.6666694476       -1.1665050845
  11
    -0.468619 !GC
 C          0.0000000000        0.0000000000        0.0000000000
 C          1.5185301238        0.0000000000        0.0000000000
 Cl         2.1658684670        1.6804496211        0.0000000000
 C         -0.5953310418       -1.3354846259        0.4106118651
 Cl        -2.3268324264       -1.4476646389       -0.0712152895
 H         -0.3013874765        0.7976890557        0.6802873322
 H         -0.3989049821        0.2163011908       -0.9919803466
 H          1.9141262678       -0.4709465831        0.8952033103
 H          1.9150982764       -0.4844568200       -0.8918908551
 H         -0.5655727627       -1.4663812503        1.4922912309
 H         -0.0935961619       -2.1614444253       -0.0861513775
  11
    -0.426274 !GC
 C          0.0000000000        0.0000000000        0.0000000000
 C          1.5080114378        0.0000000000        0.0000000000
 Cl         2.1451432626        1.6872921928        0.0000000000
 C         -0.5684055182       -0.4398097863        1.3401642869
 Cl         0.1622836653       -1.9951006132        1.8533927066
 H         -0.3025499051        1.0171264446       -0.2543419761
 H         -0.3705552604       -0.6856259410       -0.7646838936
 H          1.8936593497       -0.4712680540        0.8999438435
 H          1.8956131503       -0.4804546627       -0.8976699131
 H         -1.6446913105       -0.6018620199        1.2888145293
 H         -0.3325071478        0.2823116990        2.1191004237
  11
    -0.354832 !GC
 C          0.0000000000        0.0000000000        0.0000000000
 C          1.5152293770        0.0000000000        0.0000000000
 Cl         2.1976858138        1.6700201002        0.0000000000
 C         -0.6634876053        0.9033122580        1.0194045617
 Cl         0.0345385518        0.6962790482        2.6701759946
 H         -0.3021893591        0.2954025731       -1.0059124726
 H         -0.3672207454       -1.0068020498        0.2044504072
 H          1.9038993896       -0.4779823621        0.8951434578
 H          1.9042681643       -0.4873893067       -0.8931373643
 H         -1.7254523255        0.6763229861        1.1070277132
 H         -0.5164506262        1.9499154490        0.7648406159
  11
    -0.228920 !GC
 C          0.0000000000        0.0000000000        0.0000000000
 C          1.5072054914        0.0000000000        0.0000000000
 Cl         2.1404287324        1.6873887479        0.0000000000
 C         -0.6055493025       -0.4234891112        1.3264390616
 Cl        -2.3512601742       -0.8212391626        1.1532028402
 H         -0.3002091823        1.0100732327       -0.2830427621
 H         -0.3665430949       -0.7104523168       -0.7439550290
 H          1.8992657667       -0.4739433433        0.8956473691
 H          1.8874589203       -0.4798634940       -0.9018662554
 H         -0.5419392954        0.3749003614        2.0652246870
 H         -0.1288843124       -1.3263861899        1.6994777733
  11
    -0.207831 !GC
 C          0.0000000000        0.0000000000        0.0000000000
 C          1.5203445125        0.0000000000        0.0000000000
 Cl         2.1400345990        1.6836439936        0.0000000000
 C         -0.5954234018       -1.3951636140        0.0359890937
 Cl        -2.4021106761       -1.3629564950       -0.0054503996
 H         -0.3618191053        0.5467389640        0.8720108438
 H         -0.3610992773        0.4998568348       -0.8997732458
 H          1.9281393979       -0.4804729616        0.8876070171
 H          1.9112034400       -0.4768775814       -0.8980220745
 H         -0.3282036860       -1.9021667765        0.9602210176
 H         -0.2925119717       -1.9828539759       -0.8265176979
  11
    -0.205836 !GC
 C          0.0000000000        0.0000000000        0.0000000000
 C          1.5079009167        0.0000000000        0.0000000000
 Cl         2.1405091997        1.6889357260        0.0000000000
 C         -0.5689129398       -0.7327598883       -1.2050269895
 Cl         0.2001780797       -0.1519165240       -2.7174061932
 H         -0.3374285699       -0.4392207620        0.9397963372
 H         -0.3352421384        1.0382631808       -0.0504464618
 H          1.9077722911       -0.4778837188        0.8908314102
 H          1.8824415074       -0.4720604060       -0.9071056305
 H         -1.6392127636       -0.5583380015       -1.3105284982
 H         -0.3647374338       -1.7999680976       -1.1482019552
  11
    -0.195083 !GC
 C          0.0000000000        0.0000000000        0.0000000000
 C          1.5163970404        0.0000000000        0.0000000000
 Cl         2.1907561075        1.6756619803        0.0000000000
 C         -0.6308647101       -1.3801118287       -0.0210948191
 Cl        -0.2622293863       -2.2818144286        1.4921117550
 H         -0.3377408468        0.5415408696        0.8844149543
 H         -0.3366773132        0.5321661137       -0.8910799696
 H          1.9061782485       -0.4789201121        0.8951483753
 H          1.9092325397       -0.4791607620       -0.8937194594
 H         -0.2457599140       -1.9847610659       -0.8403770801
 H         -1.7155014018       -1.3108185682       -0.0782831859
  11
    -0.195081 !GC
 C          0.0000000000        0.0000000000        0.0000000000
 C          1.5181597013        0.0000000000        0.0000000000
 Cl         2.1682614956        1.6780449449        0.0000000000
 C         -0.6307999084        0.5742559275       -1.2535102781
 Cl        -2.4349590267        0.5157580968       -1.1878869894
 H         -0.3304420741       -1.0351132242        0.0995072602
 H         -0.3660291509        0.5725451452        0.8531536783
 H          1.9059243141       -0.4769447467        0.8978440105
 H          1.9189879705       -0.4838624581       -0.8889801387
 H         -0.3462999350        0.0024288435       -2.1337237467
 H         -0.3707262142        1.6230350046       -1.3765451158
  11
    -0.194979 !GC
 C          0.0000000000        0.0000000000        0.0000000000
 C          1.5153918784        0.0000000000        0.0000000000
 Cl         2.1989248222        1.6695718717        0.0000000000
 C         -0.6631086271       -1.3621509180        0.0046969336
 Cl        -2.4635184391       -1.2448996886       -0.0023797228
 H         -0.3353188381        0.5387542537        0.8875853722
 H         -0.3349689156        0.5330312454       -0.8910743353
 H          1.9040536308       -0.4829708256        0.8940383332
 H          1.9037249240       -0.4832727579       -0.8943867729
 H         -0.4016606954       -1.9183499011        0.9027471245
 H         -0.3960324272       -1.9274820825       -0.8858075365
  11
    -0.181222 !GC
 C          0.0000000000        0.0000000000        0.0000000000
 C          1.5186362291        0.0000000000        0.0000000000
 Cl         2.1672617713        1.6798301317        0.0000000000
 C         -0.5943332640       -1.1454872364        0.8008199209
 Cl        -0.6681366356       -2.6536204171       -0.1806391896
 H         -0.2816626511        0.9181860611        0.5205405101
 H         -0.4180896608        0.0242158030       -1.0054704115
 H          1.8981772631       -0.4547593657        0.9111175453
 H          1.9302362965       -0.5009116455       -0.8752471704
 H         -1.6240298490       -0.9240397073        1.0743246140
 H         -0.0062861693       -1.3753709495        1.6870836317
  11
    -0.175193 !GC
 C          0.0000000000        0.0000000000        0.0000000000
 C          1.5159248022        0.0000000000        0.0000000000
 Cl         2.1978102672        1.6715846432        0.0000000000
 C         -0.6277378762       -1.3814270001        0.0133699204
 Cl        -0.2999196691       -2.2366230118        1.5615024813
 H         -0.3393859721        0.5635828328        0.8701355830
 H         -0.3359603427        0.5099526183       -0.9042882271
 H          1.9124149509       -0.4819243401        0.8903318430
 H          1.8992635412       -0.4796982906       -0.8984844464
 H         -0.2152056838       -2.0063686759       -0.7778665935
 H         -1.7105084806       -1.3225640542       -0.0772040504
  11
    -0.174773 !GC
 C          0.0000000000        0.0000000000        0.0000000000
 C          1.5176873369        0.0000000000        0.0000000000
 Cl         2.1753384271        1.6740770146        0.0000000000
 C         -0.6276761850        0.5432698374       -1.2685727703
 Cl        -2.4317130758        0.5327952277       -1.1990490454
 H         -0.3320901680       -1.0319399217        0.1256501908
 H         -0.3653205150        0.5937745817        0.8388751048
 H          1.9121709705       -0.4799758241        0.8930449398
 H          1.9090423805       -0.4844687025       -0.8938059064
 H         -0.3574464575       -0.0731046429       -2.1238032623
 H         -0.3436792081        1.5790318411       -1.4383032417
  11
    -0.058539 !GC
 C          0.0000000000        0.0000000000        0.0000000000
 C          1.5188031463        0.0000000000        0.0000000000
 Cl         2.1717250904        1.6783381442        0.0000000000
 C         -0.5944422278       -1.3414718214        0.3915573147
 Cl        -0.1655620648       -1.7680710240        2.0877607062
 H         -0.2996070503        0.7580155864        0.7255516228
 H         -0.4018798001        0.2720875955       -0.9765498542
 H          1.9001522884       -0.4692372889        0.9031829624
 H          1.9276196547       -0.4883962863       -0.8833917318
 H         -0.2091697245       -2.1465640059       -0.2320365371
 H         -1.6809735369       -1.3158785185        0.3510552141
  11
    -0.058172 !GC
 C          0.0000000000        0.0000000000        0.0000000000
 C          1.5185605297        0.0000000000        0.0000000000
 Cl         2.1659789799        1.6804796027        0.0000000000
 C         -0.5944616169        0.6153227260       -1.2546964256
 Cl        -2.3322486543        1.0223713399       -1.0151731375
 H         -0.3349475712       -1.0282368312        0.1394835832
 H         -0.3662587372        0.6025108078        0.8329961402
 H          1.9111762445       -0.4760588516        0.8953414557
 H          1.9170186587       -0.4803251167       -0.8918696392
 H         -0.5522451352       -0.0651483459       -2.1041638155
 H         -0.0978295809        1.5527024104       -1.4934943564
  11
    -0.007642 !GC
 C          0.0000000000        0.0000000000        0.0000000000
 C          1.5179971999        0.0000000000        0.0000000000
 Cl         2.1670168885        1.6784716145        0.0000000000
 C         -0.6311818719       -1.3202977648        0.3969560210
 Cl         0.0775250421       -2.7072361626       -0.5177739691
 H         -0.2972648268        0.7785496500        0.7042623370
 H         -0.3979259083        0.2416906485       -0.9863359229
 H          1.9057714398       -0.4719464878        0.8989153537
 H          1.9195418272       -0.4879547252       -0.8877194309
 H         -1.6976481884       -1.3277366492        0.1777318427
 H         -0.4534650527       -1.5380845897        1.4465149063
  11
    -0.007550 !GC
 C          0.0000000000        0.0000000000        0.0000000000
 C          1.5162345390        0.0000000000        0.0000000000
 Cl         2.1895131242        1.6761042944        0.0000000000
 C         -0.6312470373        0.8958229118        1.0499319042
 Cl        -2.3629141397        0.4746671738        1.3001060248
 H         -0.3046499578        0.2911662373       -1.0059195716
 H         -0.3689145753       -1.0061727505        0.2050750712
 H          1.9060220391       -0.4739312886        0.8962313095
 H          1.9097796194       -0.4832705613       -0.8924855917
 H         -0.6058926156        1.9437277857        0.7513553303
 H         -0.1468402108        0.7645363993        2.0145540353
  11
    -0.007331 !GC
 C          0.0000000000        0.0000000000        0.0000000000
 C          1.5089844276        0.0000000000        0.0000000000
 Cl         2.1825202474        1.6777084993        0.0000000000
 C         -0.6455645067       -0.2144002421        1.3594891945
 Cl        -0.0672185873        0.9632229874        2.5983531064
 H         -0.2840702158        0.9818629154       -0.3844829621
 H         -0.3700848404       -0.7690793716       -0.6802005306
 H          1.8906902901       -0.4687091037        0.9029691862
 H          1.8941233951       -0.4904979502       -0.8934187185
 H         -0.3986806559       -1.1981739450        1.7541187399
 H         -1.7241749587       -0.0862216847        1.3064648743
  11
    -0.003546 !GC
 C          0.0000000000        0.0000000000        0.0000000000
 C          1.5202125432        0.0000000000        0.0000000000
 Cl         2.1388962850        1.6840826016        0.0000000000
 C         -0.5949397905       -1.3957708878       -0.0095007396
 Cl         0.1693846454       -2.4495660736       -1.2633743874
 H         -0.3622325779        0.5548819174        0.8660573319
 H         -0.3603387213        0.4916420170       -0.9051840462
 H          1.9250357004       -0.4806308476        0.8888420181
 H          1.9136811066       -0.4768674572       -0.8967700381
 H         -1.6569822864       -1.3733159454       -0.2447819258
 H         -0.4215053117       -1.8981003873        0.9382022085
  11
    -0.002931 !GC
 C          0.0000000000        0.0000000000        0.0000000000
 C          1.5165290097        0.0000000000        0.0000000000
 Cl         2.1918876807        1.6751901093        0.0000000000
 C         -0.6313439976       -1.3798784129        0.0238914482
 Cl        -0.2592900761       -2.2873449753       -1.4850262671
 H         -0.3373117859        0.5332022366        0.8902356795
 H         -0.3374552281        0.5402257654       -0.8853153559
 H          1.9092956068       -0.4787908549        0.8939504156
 H          1.9067593081       -0.4791749308       -0.8949696060
 H         -1.7157950233       -1.3086003559        0.0775792835
 H         -0.2497826931       -1.9818746614        0.8467029717
  11
    -0.002920 !GC
 C          0.0000000000        0.0000000000        0.0000000000
 C          1.5180490540        0.0000000000        0.0000000000
 Cl         2.1636516132        1.6797229712        0.0000000000
 C         -0.6312983839        0.5795347747        1.2508791603
 Cl        -2.4354448651        0.5180196228        1.1882606825
 H         -0.3650090117        0.5687873982       -0.8561657216
 H         -0.3307030437       -1.0354156240       -0.0948294560
 H          1.9200485629       -0.4834989086        0.8886632313
 H          1.9058861557       -0.4756758885       -0.8985914890
 H         -0.3722048565        1.6292933217        1.3665794429
 H         -0.3454613848        0.0141331171        2.1348091206
  11
    -0.002551 !GC
 C          0.0000000000        0.0000000000        0.0000000000
 C          1.5204551599        0.0000000000        0.0000000000
 Cl         2.1446543122        1.6820353689        0.0000000000
 C         -0.5949201921        0.9340761348        1.0371822088
 Cl        -2.4019942428        0.9217776445        1.0014830874
 H         -0.3272074344        0.3359340661       -0.9854470276
 H         -0.3960392294       -1.0004045851        0.1771978241
 H          1.9140446367       -0.4739582068        0.8968347434
 H          1.9243067803       -0.4850336769       -0.8883657869
 H         -0.3016516947        1.9635452046        0.8447154622
 H         -0.3179312757        0.6371585470        2.0452346872
  11
    -0.001924 !GC
 C          0.0000000000        0.0000000000        0.0000000000
 C          1.5090406975        0.0000000000        0.0000000000
 Cl         2.1823745455        1.6779053951        0.0000000000
 C         -0.6461634229       -0.5114913325       -1.2772828347
 Cl        -2.3227990517        0.1144257726       -1.5074411173
 H         -0.3368662057       -0.5480959903        0.8805246790
 H         -0.3179314767        1.0421494935        0.0871116017
 H          1.9067898017       -0.4895677778        0.8856362047
 H          1.8782878027       -0.4691820895       -0.9107026581
 H         -0.7233604502       -1.5976214880       -1.2820268748
 H         -0.0907223958       -0.1667262499       -2.1456158287
