  11
  -18.5891194600000       0.235153939442494      !
 C         -0.0003294203        1.3105029307        0.0006908820
 C         -0.9330406498        0.4728026063       -0.8564613162
 Cl        -2.0864233121       -0.4612955330        0.1633402040
 C          0.9324837111        0.4715242340        0.8565907704
 Cl         2.0867765060       -0.4608202767       -0.1636982721
 H          0.5843659958        1.9473014676       -0.6645950431
 H         -0.5852485142        1.9459557268        0.6670653560
 H         -1.5415310006        1.0982449175       -1.5055051213
 H         -0.3809066571       -0.2598042965       -1.4427903903
 H          0.3809284236       -0.2621639779        1.4418968207
 H          1.5405305928        1.0958224227        1.5067477154
  11
  -18.5891164100000       0.234396204900867      !
 C          0.0000417058        1.3102347462       -0.0000426108
 C         -1.0864491539        0.4725389572        0.6513925339
 Cl        -2.0113470829       -0.4612557606       -0.5795473569
 C          1.0864938083        0.4725522085       -0.6515127805
 Cl         2.0113129862       -0.4610891296        0.5796114759
 H         -0.4388707526        1.9463257419       -0.7699652538
 H          0.4389271700        1.9463394609        0.7698830916
 H         -0.6637731359       -0.2602405743        1.3366558966
 H         -1.8133423078        1.0976113575        1.1647934001
 H          1.8133370592        1.0976887515       -1.1648660788
 H          0.6638921944       -0.2602229551       -1.3368157276
  11
  -18.5883867900000       0.108302988322808      !
 C         -0.0421918327        0.9038657197        0.2836350228
 C         -0.8640066021       -0.3757684519        0.2578168350
 Cl        -2.4950487907       -0.0541342449       -0.4202141064
 C          1.3379926766        0.6683905644        0.8740577923
 Cl         2.3130096326       -0.4317635067       -0.1683743347
 H          0.0498180911        1.2989838017       -0.7287098088
 H         -0.5486649936        1.6494808434        0.8984241826
 H         -0.4065048652       -1.1301090988       -0.3800499265
 H         -1.0186073859       -0.7736047678        1.2592702913
 H          1.2828478980        0.1904641237        1.8499389053
 H          1.8987807250        1.5980898305        0.9365469301
  11
  -18.5883864700000       0.108266320718870      !
 C          0.0424873194        0.9034051245       -0.2827814867
 C         -1.3380738958        0.6694837934       -0.8728747285
 Cl        -2.3130234099       -0.4323841009        0.1677106986
 C          0.8646593023       -0.3758850900       -0.2596697956
 Cl         2.4947121565       -0.0537686956        0.4208170301
 H          0.5482249490        1.6503860733       -0.8964676710
 H         -0.0485040184        1.2959017378        0.7307845273
 H         -1.8986966944        1.5994929891       -0.9338298524
 H         -1.2832580703        0.1928430508       -1.8493803028
 H          1.0202754108       -0.7705883560       -1.2622347941
 H          0.4062833163       -1.1319085697        0.3756547276
  11
  -18.5883841800000       0.108004280229704      !
 C          0.0727133917        0.6700320884       -0.6670165552
 C         -1.3800406428        0.9861127268       -0.3530374058
 Cl        -2.3023410984       -0.5123766610        0.0361288467
 C          0.7993248240        0.1172366539        0.5495744979
 Cl         2.5168791899       -0.2194802029        0.1494997746
 H          0.1274732729       -0.0507974257       -1.4836158079
 H          0.5555913024        1.5931573457       -0.9911458634
 H         -1.4730055474        1.6330254458        0.5168059654
 H         -1.8770774386        1.4299059299       -1.2125312264
 H          0.3667391144       -0.8267391715        0.8766176064
 H          0.8076096364        0.8316982705        1.3709228679
  11
  -18.5883841700000       0.108003137340341      !
 C         -0.0727641723        0.6692406294        0.6678015015
 C         -0.7992990004        0.1175483219       -0.5493403925
 Cl        -2.5168918207       -0.2195772116       -0.1497914292
 C          1.3799402194        0.9859202493        0.3541471664
 Cl         2.3024069742       -0.5120137563       -0.0367104791
 H         -0.5557899348        1.5919577324        0.9928825817
 H         -0.1274453045       -0.0524458801        1.4836537853
 H         -0.8076323356        0.8328432593       -1.3699460236
 H         -0.3666296552       -0.8260513563       -0.8773774423
 H          1.8769387981        1.4288702454        1.2140990737
 H          1.4728493201        1.6337346889       -0.5150160068
  11
  -18.5873471100000       3.604429986808146E-002 !
 C          0.0485935869        1.5169852141       -0.2680800453
 C         -1.3231032224        0.9923841101        0.1255753065
 Cl        -1.5771017946       -0.7218100154       -0.3847571463
 C          1.1963657014        0.9936302691        0.5807106863
 Cl         1.6107316695       -0.7221580708        0.1962474206
 H          0.2386819857        1.3039289277       -1.3203119435
 H          0.0245642586        2.6008183698       -0.1378001045
 H         -1.4645329839        1.0096675267        1.2043688818
 H         -2.1085430869        1.5595466229       -0.3684853946
 H          0.9526637847        1.0142349371        1.6410353942
 H          2.1054531301        1.5592674221        0.3900533932
  11
  -18.5873470600000       3.604239282390096E-002 !
 C         -0.0489994708        1.5163557231        0.2696172181
 C         -1.1964168781        0.9938687452       -0.5801259394
 Cl        -1.6111333409       -0.7221065087       -0.1967066401
 C          1.3230197730        0.9927785450       -0.1244754079
 Cl         1.5777135358       -0.7218920925        0.3838425753
 H         -0.0255051343        2.6004435545        0.1406659400
 H         -0.2392846094        1.3017800199        1.3216329146
 H         -2.1054418290        1.5594203459       -0.3888099024
 H         -0.9526005981        1.0157494982       -1.6404687701
 H          2.1080254141        1.5592289294        0.3712729934
 H          1.4655715300        1.0118740278       -1.2032237514
  11
  -18.5869413000000       2.346060626093548E-002 !
 C         -0.0000103944       -0.1242293146       -0.0000143000
 C         -1.2432674457        0.7468294035       -0.1129308848
 Cl        -2.7069477365       -0.2878758591       -0.2477151081
 C          1.2432348015        0.7468235709        0.1130899046
 Cl         2.7069667800       -0.2878455561        0.2476607113
 H         -0.0799935939       -0.7650599703        0.8790881135
 H          0.0799190158       -0.7647379340       -0.8793174927
 H         -1.3840071143        1.3646993787        0.7715539354
 H         -1.2211056217        1.3661600778       -1.0073797876
 H          1.2211522097        1.3660772132        1.0076072185
 H          1.3838781285        1.3648676361       -0.7713631486
  11
  -18.5847571600000       2.325830091999093E-003 !
 C         -0.0674141790        1.2417744841        0.4503010164
 C         -0.9186509286        0.6865664963       -0.6941883832
 Cl        -2.0688007569       -0.5717637962       -0.1129728799
 C          1.4239139903        1.0785372160        0.2062044262
 Cl         1.8837439832       -0.6662144565        0.1363821216
 H         -0.2665171475        2.3063447480        0.5748728989
 H         -0.3346893362        0.7423559520        1.3816721970
 H         -1.5327655277        1.4518572169       -1.1615378520
 H         -0.3025356974        0.1928460029       -1.4433085512
 H          2.0023520923        1.5105764185        1.0195791196
 H          1.7258178029        1.5099113937       -0.7456317015
