  12
    -0.862975 !GC
 C          0.0000000000        0.0000000000        0.0000000000
 C          1.5233343871        0.0000000000        0.0000000000
 C          2.0656100242        1.4370397517        0.0000000000
 C          3.4996656891        1.4520297360       -0.0047292666
 N          4.6456682268        1.4690547294        0.0060272391
 H         -0.3945267495        0.5121002401        0.8759283616
 H         -0.3626149875        0.5088950921       -0.8878295477
 H         -0.3839604560       -1.0172859511       -0.0105820648
 H          1.8947550735       -0.5264396695        0.8815665198
 H          1.8940900040       -0.5254135101       -0.8823597050
 H          1.7183559069        1.9712253141        0.8880525741
 H          1.7156142810        1.9725386908       -0.8863747081
  12
    -0.862732 !GC
 C          0.0000000000        0.0000000000        0.0000000000
 C          1.5233274480        0.0000000000        0.0000000000
 C          2.0651511362        1.4372335424        0.0000000000
 C          3.4992887003        1.4528137929       -0.0015732993
 N          4.6456370077        1.4532734932        0.0189921576
 H         -0.3844583814       -1.0172857291        0.0110922463
 H         -0.3625287499        0.5105006668        0.8869394824
 H         -0.3941096078        0.5117160454       -0.8758631320
 H          1.8947101942       -0.5261018885        0.8818661420
 H          1.8942915791       -0.5255306162       -0.8823166061
 H          1.7162286726        1.9722137544        0.8869120930
 H          1.7161990742        1.9719821772       -0.8870298346
  12
    -0.262489 !GC
 C          0.0000000000        0.0000000000        0.0000000000
 C          1.5235850783        0.0000000000        0.0000000000
 C          2.0657775992        1.4368464566        0.0000000000
 C          1.3997150228        2.2444748212       -0.9808089040
 N          0.8583017893        2.8997896826       -1.7501511863
 H         -0.3878540722       -1.0180252291        0.0068305308
 H         -0.3733011784        0.5158083158        0.8803342746
 H         -0.3784776594        0.5067123802       -0.8819240435
 H          1.8958911691       -0.5468513300        0.8702163727
 H          1.8937345113       -0.5051242014       -0.8936626355
 H          3.1372053959        1.4316721758       -0.2172526223
 H          1.9118739643        1.9028108918        0.9768155322
  12
    -0.257498 !GC
 C          0.0000000000        0.0000000000        0.0000000000
 C          1.5233775357        0.0000000000        0.0000000000
 C          2.0664114968        1.4366803966        0.0000000000
 C          1.4090782080        2.2416965647       -0.9882400923
 N          0.8743812905        2.8958880664       -1.7630249670
 H         -0.3798613081       -1.0173456879        0.0161250459
 H         -0.3775557288        0.5216186657        0.8770840320
 H         -0.3837441972        0.4989641253       -0.8867381329
 H          1.8954912286       -0.5469506545        0.8698790009
 H          1.8936830386       -0.5043801186       -0.8935906452
 H          3.1395699283        1.4303136743       -0.2083903757
 H          1.9043771502        1.9048718096        0.9741531958
  12
    -0.248603 !GC
 C          0.0000000000        0.0000000000        0.0000000000
 C          1.5233875028        0.0000000000        0.0000000000
 C          2.0661272074        1.4368858563        0.0000000000
 C          1.4130443662        2.2395601245        0.9929343610
 N          0.9015205766        2.8983630441        1.7791919836
 H         -0.3840333915        0.4999289592        0.8860512874
 H         -0.3772076084        0.5203750052       -0.8778379559
 H         -0.3797077090       -1.0172927620       -0.0150227458
 H          1.8942277034       -0.5054134779        0.8929001371
 H          1.8948084157       -0.5461691002       -0.8705897735
 H          1.9010124891        1.9068199918       -0.9728133100
 H          3.1399483623        1.4302014491        0.2049762732
  12
    -0.085048 !GC
 C          0.0000000000        0.0000000000        0.0000000000
 C          1.5230894995        0.0000000000        0.0000000000
 C          2.0413114172        1.4455974490        0.0000000000
 C          1.7168250945        2.1076244876        1.2289681127
 N          1.4838876922        2.6225217648        2.2266971384
 H         -0.3802557810        0.5056658508       -0.8841676192
 H         -0.3719449568       -1.0200225816       -0.0019230132
 H         -0.3850111842        0.5072617268        0.8797609621
 H          1.8984845690       -0.5379455303        0.8742757793
 H          1.8968976921       -0.5165865967       -0.8865947381
 H          1.5963732717        2.0024325412       -0.8289211113
 H          3.1275132279        1.4575339450       -0.1209714026
  12
    -0.076504 !GC
 C          0.0000000000        0.0000000000        0.0000000000
 C          1.5230129169        0.0000000000        0.0000000000
 C          2.0423920506        1.4451453499        0.0000000000
 C          1.7098900932        2.1101985429        1.2248917620
 N          1.4450209138        2.6200857536        2.2166421278
 H         -0.3831040930        0.5037720531       -0.8839168401
 H         -0.3747582201       -1.0190254614        0.0067869481
 H         -0.3803020793        0.5108517487        0.8812096131
 H          1.8977995582       -0.5378818443        0.8743067773
 H          1.8969665221       -0.5168817617       -0.8860558814
 H          1.6037930195        2.0001186705       -0.8336566871
 H          3.1296714806        1.4557697265       -0.1128858869
  12
    -0.075377 !GC
 C          0.0000000000        0.0000000000        0.0000000000
 C          1.5230228840        0.0000000000        0.0000000000
 C          2.0399838634        1.4460456377        0.0000000000
 C          1.6974173613        2.1128839184       -1.2212025020
 N          1.4502162802        2.6588648023       -2.1985417703
 H         -0.3835537331        0.5088541118       -0.8807453799
 H         -0.3683642753       -1.0218697031       -0.0069522563
 H         -0.3861269805        0.4973022709        0.8855474154
 H          1.8978582561       -0.5171238289        0.8857170579
 H          1.8977222243       -0.5369981123       -0.8749387681
 H          3.1277735959        1.4590032635        0.1074432565
 H          1.6045801788        1.9988663792        0.8367302523
  12
    -0.068879 !GC
 C          0.0000000000        0.0000000000        0.0000000000
 C          1.5230407995        0.0000000000        0.0000000000
 C          2.0412169545        1.4456162658        0.0000000000
 C          1.7013135024        2.1123900776       -1.2219907516
 N          1.4492141901        2.6227204119       -2.2172508767
 H         -0.3730342836       -1.0198801286       -0.0023536232
 H         -0.3788082076        0.5010047676        0.8873617374
 H         -0.3861663398        0.5119105029       -0.8772555481
 H          1.8975415458       -0.5168987985        0.8859641083
 H          1.8978053906       -0.5374164498       -0.8746892289
 H          3.1290116257        1.4576380883        0.1080267617
 H          1.6058930810        1.9985788105        0.8365564051
  12
    -0.065632 !GC
 C          0.0000000000        0.0000000000        0.0000000000
 C          1.5230715839        0.0000000000        0.0000000000
 C          2.0400783417        1.4460268594        0.0000000000
 C          1.7167947574        2.1067506593        1.2299768936
 N          1.4479016919        2.6110725542        2.2239889122
 H         -0.3907686452        0.5132363116        0.8765721720
 H         -0.3614967484        0.5105891965       -0.8862618945
 H         -0.3849718903       -1.0154330382       -0.0079755130
 H          1.8988015426       -0.5381647644        0.8740231449
 H          1.8968145696       -0.5161627094       -0.8868342677
 H          1.5942751344        2.0026557732       -0.8285264852
 H          3.1263227557        1.4592168497       -0.1212995279
  12
    -0.042885 !GC
 C          0.0000000000        0.0000000000        0.0000000000
 C          1.5235882324        0.0000000000        0.0000000000
 C          2.0659635121        1.4367676350        0.0000000000
 C          1.4075206895        2.2408516117       -0.9885467052
 N          0.8714284345        2.8941820710       -1.7631767835
 H         -0.3836384955        0.5202875274        0.8749682704
 H         -0.3802599212        0.4976339393       -0.8896363764
 H         -0.3765869367       -1.0188537545        0.0109569541
 H          1.8958388481       -0.5465482349        0.8702774303
 H          1.8939408963       -0.5051577998       -0.8933357099
 H          3.1391171011        1.4311288766       -0.2089201178
 H          1.9043980400        1.9055229814        0.9742882944
  12
    -0.041821 !GC
 C          0.0000000000        0.0000000000        0.0000000000
 C          1.5233037288        0.0000000000        0.0000000000
 C          2.0667415367        1.4366084862        0.0000000000
 C          1.4050840100        2.2428463382        0.9840849374
 N          0.8881718443        2.9049301820        1.7638311216
 H         -0.3768025904       -1.0188145054       -0.0030089535
 H         -0.3799364121        0.5031999806        0.8866894480
 H         -0.3851558139        0.5150948858       -0.8775677958
 H          1.8934988267       -0.5050038264        0.8932173583
 H          1.8950793677       -0.5465635577       -0.8699951964
 H          1.9107480428        1.9034958196       -0.9758781360
 H          3.1387280914        1.4298608331        0.2144817760
  12
    -0.039846 !GC
 C          0.0000000000        0.0000000000        0.0000000000
 C          1.5234142500        0.0000000000        0.0000000000
 C          2.0668315570        1.4366960957        0.0000000000
 C          1.4140437626        2.2397680667        0.9928133540
 N          0.9026696119        2.8990588340        1.7786629144
 H         -0.3911997131       -1.0158002678       -0.0099103981
 H         -0.3728127807        0.5021392295        0.8885142177
 H         -0.3769190588        0.5237271239       -0.8740412124
 H          1.8940629394       -0.5053267105        0.8929862144
 H          1.8945994272       -0.5466540978       -0.8703917499
 H          1.9017646589        1.9063947914       -0.9728028918
 H          3.1406795416        1.4299829173        0.2045530754
  12
    -0.000709 !GC
 C          0.0000000000        0.0000000000        0.0000000000
 C          1.5234042829        0.0000000000        0.0000000000
 C          2.0671157658        1.4364904967        0.0000000000
 C          1.4102959535        2.2418238827       -0.9883296327
 N          0.8761795161        2.8965242776       -1.7629872154
 H         -0.3870245716        0.4938579912       -0.8878895695
 H         -0.3731607090       -1.0204585863        0.0155426360
 H         -0.3809568191        0.5179568914        0.8775768964
 H          1.8953262998       -0.5468683234        0.8699689862
 H          1.8934742567       -0.5048724875       -0.8934156962
 H          3.1401403475        1.4293098345       -0.2084363348
 H          1.9058586397        1.9050132561        0.9740636891
  12
    -0.000586 !GC
 C          0.0000000000        0.0000000000        0.0000000000
 C          1.5233304759        0.0000000000        0.0000000000
 C          2.0674457881        1.4364183964        0.0000000000
 C          1.4060860936        2.2430574711        0.9839629588
 N          0.8893370370        2.9056444956        1.7632925599
 H         -0.3839716282        0.5111512746       -0.8796293939
 H         -0.3755417027       -1.0196257430       -0.0052153100
 H         -0.3823686962        0.5019137173        0.8869552686
 H          1.8933340687       -0.5049169496        0.8933032921
 H          1.8948704488       -0.5470483483       -0.8697970134
 H          1.9114984491        1.9030662304       -0.9758682331
 H          3.1394632188        1.4296413974        0.2140573042
  12
    -0.000266 !GC
 C          0.0000000000        0.0000000000        0.0000000000
 C          1.5232035533        0.0000000000        0.0000000000
 C          2.0672797302        1.4366082006        0.0000000000
 C          1.4153839811        2.2406912324        0.9922959868
 N          0.9041235692        2.9005364984        1.7776726828
 H         -0.3874167822        0.5136333732       -0.8758831681
 H         -0.3701047841       -1.0216320176       -0.0100798371
 H         -0.3840767940        0.4946546998        0.8891775775
 H          1.8937156616       -0.5057464557        0.8926065234
 H          1.8943414244       -0.5458880063       -0.8706829751
 H          1.9027999758        1.9059560161       -0.9729677980
 H          3.1407430176        1.4287032902        0.2049658759
  12
    -0.000150 !GC
 C          0.0000000000        0.0000000000        0.0000000000
 C          1.5230965648        0.0000000000        0.0000000000
 C          2.0417732267        1.4454110268        0.0000000000
 C          1.7201899330        2.1064128937        1.2301876400
 N          1.4654815930        2.6140704601        2.2258979894
 H         -0.3903315666       -1.0158889437       -0.0013889035
 H         -0.3720309376        0.5122682117        0.8820275256
 H         -0.3748581025        0.5143158611       -0.8789701601
 H          1.8985292886       -0.5382789016        0.8739714054
 H          1.8966962770       -0.5164692256       -0.8866372393
 H          1.5952700751        2.0026740987       -0.8277992072
 H          3.1279783098        1.4571798691       -0.1224811877
  12
    -0.000008 !GC
 C          0.0000000000        0.0000000000        0.0000000000
 C          1.5230478648        0.0000000000        0.0000000000
 C          2.0416787707        1.4454298580        0.0000000000
 C          1.6992330231        2.1131379263       -1.2206748393
 N          1.4501251362        2.6473548266       -2.2036707113
 H         -0.3831163578        0.5017908790        0.8849219575
 H         -0.3788941199        0.5140439207       -0.8798385466
 H         -0.3760108314       -1.0185127918       -0.0100590186
 H          1.8975862511       -0.5172389397        0.8856678427
 H          1.8976038344       -0.5373001524       -0.8747346501
 H          3.1296880360        1.4566890831        0.1059899121
 H          1.6076806559        1.9982982615        0.8375285106
  12
    -0.000000 !GC
 C          0.0000000000        0.0000000000        0.0000000000
 C          1.5229879361        0.0000000000        0.0000000000
 C          2.0406974807        1.4457619940        0.0000000000
 C          1.7064921063        2.1105243993        1.2246719068
 N          1.4269406875        2.6177515428        2.2140925902
 H         -0.3835415100       -1.0171937861        0.0132674271
 H         -0.3642311258        0.5153818908        0.8824187562
 H         -0.3904209455        0.5080321005       -0.8794037960
 H          1.8980717848       -0.5377677704        0.8743586226
 H          1.8970848038       -0.5165754350       -0.8862530074
 H          1.6028076036        2.0001072843       -0.8343712447
 H          3.1280072163        1.4578125111       -0.1117042033
