  16
    -0.344041 !GC
 C          0.0000000000        0.0000000000        0.0000000000
 C          1.4933581760        0.0000000000        0.0000000000
 C          2.2475435951        1.1613715874        0.0000000000
 C          3.6396280054        1.1169117056        0.0007556029
 C          4.2899623096       -0.1131809665        0.0018522188
 C          3.5529609632       -1.2823677573        0.0031178939
 C          2.1732435687       -1.2157381226        0.0029562800
 Cl         1.2385575378       -2.6874879789        0.0029508200
 O          4.3981437830        2.2399377288        0.0016136244
 H         -0.3792485767       -1.0209203617       -0.0273438390
 H         -0.3545546431        0.4320138751        0.9383347133
 H         -0.3995280614        0.5692196965       -0.8299983467
 H          1.7439847851        2.1167181089        0.0026877480
 H          5.3671169143       -0.1359244977        0.0002863033
 H          4.0491300350       -2.2393707926        0.0010768241
 H          3.8410762680        3.0331275048        0.0010569375
  16
    -0.268099 !GC
 C          0.0000000000        0.0000000000        0.0000000000
 C          1.4935832556        0.0000000000        0.0000000000
 C          2.2483218308        1.1642909936        0.0000000000
 C          3.6382577588        1.1189868334        0.0008408740
 C          4.2887953280       -0.1135393028        0.0020765988
 C          3.5540769017       -1.2809405242        0.0036698050
 C          2.1725435585       -1.2140012446        0.0030971171
 Cl         1.2384661298       -2.6862648255        0.0038938108
 O          4.4836810930        2.1779214336       -0.0005609703
 H         -0.3787270928        0.4596309793        0.9120030126
 H         -0.3669261736        0.5815469241       -0.8436363052
 H         -0.3900356226       -1.0117423217       -0.0654157264
 H          1.7188285950        2.1074346712       -0.0006383409
 H          5.3643150351       -0.1085034367        0.0009326804
 H          4.0504939166       -2.2375971620        0.0052936198
 H          5.4067902001        1.8812485740        0.0011050842
  16
    -0.266087 !GC
 C          0.0000000000        0.0000000000        0.0000000000
 C          1.4952726142        0.0000000000        0.0000000000
 C          2.2127086406        1.1911625866        0.0000000000
 C          3.6009598104        1.1995707182       -0.0003021660
 C          4.2958651208       -0.0097704893        0.0000015281
 C          3.6019954293       -1.1998748543        0.0009292186
 C          2.2164150759       -1.1873725249        0.0007156315
 Cl         1.3673765146       -2.7130442653        0.0010483310
 O          4.4077896970        2.2881250717       -0.0011336281
 H         -0.3732750726       -0.5299573631       -0.8745702751
 H         -0.3773714442       -0.5169969081        0.8805323968
 H         -0.3868392449        1.0138817705       -0.0084208617
 H          1.6447318959        2.1117548148        0.0001185798
 H          5.3705220460        0.0328078672        0.0011461406
 H          4.1320454736       -2.1384632824        0.0042270973
 H          5.3412211629        2.0245917480       -0.0002267702
  16
    -0.255420 !GC
 C          0.0000000000        0.0000000000        0.0000000000
 C          1.4933417745        0.0000000000        0.0000000000
 C          2.2476921893        1.1612292188        0.0000000000
 C          3.6397984045        1.1165535669        0.0002382088
 C          4.2899057415       -0.1136316099        0.0014053908
 C          3.5527400264       -1.2826999783        0.0029444958
 C          2.1730394783       -1.2158736596        0.0023151340
 Cl         1.2380396213       -2.6874295157        0.0015917761
 O          4.3984786785        2.2394714776        0.0011419081
 H         -0.3547380937        0.5249068194       -0.8896062045
 H         -0.3781507277       -1.0189927332       -0.0801992787
 H         -0.4004032306        0.4780638525        0.8847877575
 H          1.7442887273        2.1166489873        0.0027600912
 H          5.3670328063       -0.1365853226        0.0000333791
 H          4.0486917011       -2.2398099025        0.0005502499
 H          3.8413278100        3.0330663318        0.0010862161
  16
    -0.103765 !GC
 C          0.0000000000        0.0000000000        0.0000000000
 C          1.4933087191        0.0000000000        0.0000000000
 C          2.2475822133        1.1613483871        0.0000000000
 C          3.6396937389        1.1168571143        0.0019546197
 C          4.2898870770       -0.1132951130        0.0038532385
 C          3.5528967382       -1.2824599838        0.0047079486
 C          2.1731574605       -1.2157505847        0.0034815225
 Cl         1.2385177182       -2.6875151661        0.0032142538
 O          4.3982000734        2.2399351649        0.0022821515
 H         -0.3796082045        0.4579212589        0.9126610703
 H         -0.3636970745        0.5845345266       -0.8432034657
 H         -0.3901866881       -1.0115395503       -0.0693113920
 H          1.7440263334        2.1167560830       -0.0003301073
 H          5.3670566254       -0.1360702088        0.0024429820
 H          4.0490154568       -2.2394356794        0.0031099859
 H          3.8411215444        3.0330880426        0.0010290240
  16
    -0.096873 !GC
 C          0.0000000000        0.0000000000        0.0000000000
 C          1.4952506614        0.0000000000        0.0000000000
 C          2.2126163855        1.1911910827        0.0000000000
 C          3.6008780112        1.1998044183        0.0023980890
 C          4.2960069091       -0.0093446623        0.0052707585
 C          3.6022604865       -1.1995108228        0.0061845412
 C          2.2165704384       -1.1872727990        0.0037166937
 Cl         1.3677556145       -2.7130010708        0.0046436951
 O          4.4075632427        2.2884528861        0.0034719514
 H         -0.3644991728       -0.4640796196        0.9190638838
 H         -0.3737930793        1.0222133491        0.0158549095
 H         -0.3985933726       -0.5378152231       -0.8498570529
 H          1.6447598964        2.1118404079       -0.0018334651
 H          5.3709461118        0.0336198506        0.0066029369
 H          4.1324117459       -2.1380513496        0.0085771153
 H          5.3406936395        2.0251182295        0.0048428369
  16
    -0.093526 !GC
 C          0.0000000000        0.0000000000        0.0000000000
 C          1.4952675676        0.0000000000        0.0000000000
 C          2.2126560822        1.1911685206        0.0000000000
 C          3.6009187219        1.1996455518       -0.0001027243
 C          4.2959099567       -0.0095861399        0.0006315751
 C          3.6021136879       -1.1997077704        0.0013180535
 C          2.2164986275       -1.1873621625        0.0010610903
 Cl         1.3676511224       -2.7130588484        0.0023529339
 O          4.4077644684        2.2881820674       -0.0024960245
 H         -0.3863631693       -0.4686342101        0.8995194053
 H         -0.3643614364        1.0294037937       -0.0155479469
 H         -0.3865687503       -0.4948847190       -0.8849503289
 H          1.6448583419        2.1118875533        0.0009758441
 H          5.3706911221        0.0330154365        0.0022435286
 H          4.1322702087       -2.1382758232        0.0032394691
 H          5.3412543833        2.0248594941       -0.0006327206
  16
    -0.089116 !GC
 C          0.0000000000        0.0000000000        0.0000000000
 C          1.4952996137        0.0000000000        0.0000000000
 C          2.2127593036        1.1911247682        0.0000000000
 C          3.6010528677        1.1996560937        0.0014842726
 C          4.2960147984       -0.0096459242        0.0029351874
 C          3.6021410394       -1.1997519296        0.0035262643
 C          2.2164759072       -1.1873770752        0.0021696520
 Cl         1.3675485584       -2.7130429008        0.0030693243
 O          4.4079365234        2.2882016625        0.0031567147
 H         -0.3729777842        1.0208885186       -0.0624646026
 H         -0.3644484456       -0.5043635673       -0.8977055282
 H         -0.3994912713       -0.4992487044        0.8726007561
 H          1.6449379956        2.1117509103        0.0001616604
 H          5.3708333174        0.0329537150        0.0063254358
 H          4.1322396464       -2.1383729960        0.0072673239
 H          5.3411516607        2.0248873964        0.0033516015
  16
    -0.045881 !GC
 C          0.0000000000        0.0000000000        0.0000000000
 C          1.4936102551        0.0000000000        0.0000000000
 C          2.2483711597        1.1642524613        0.0000000000
 C          3.6383527616        1.1190709139        0.0026364563
 C          4.2889476531       -0.1134175800        0.0050166737
 C          3.5542247481       -1.2808202740        0.0062688870
 C          2.1726019709       -1.2140051035        0.0045496023
 Cl         1.2386354371       -2.6862687407        0.0058643124
 O          4.4838284069        2.1779970268        0.0037492688
 H         -0.3784305895       -1.0213244675       -0.0172171193
 H         -0.3539195301        0.4393597735        0.9350424438
 H         -0.4026777150        0.5613988685       -0.8338506777
 H          1.7190345867        2.1074236277       -0.0005953673
 H          5.3646343647       -0.1083645269        0.0061225325
 H          4.0506902924       -2.2375114279        0.0083350541
 H          5.4067294539        1.8815499304        0.0047100821
  16
    -0.027532 !GC
 C          0.0000000000        0.0000000000        0.0000000000
 C          1.4935938535        0.0000000000        0.0000000000
 C          2.2485202224        1.1641099904        0.0000000000
 C          3.6385242027        1.1187125369        0.0021194495
 C          4.2888913833       -0.1138686036        0.0045707805
 C          3.5540038566       -1.2811528872        0.0060966574
 C          2.1723984765       -1.2141408339        0.0039092050
 Cl         1.2381180615       -2.6862113008        0.0045062571
 O          4.4841552280        2.1775178056        0.0032276507
 H         -0.3539138721        0.5161369536       -0.8949115840
 H         -0.3775197365       -1.0197138594       -0.0722664371
 H         -0.4035505765        0.4850557445        0.8795902389
 H          1.7193370254        2.1073587280       -0.0005218758
 H          5.3645555057       -0.1090262418        0.0058709776
 H          4.0502538182       -2.2379516078        0.0078097265
 H          5.4073820996        1.8808437935        0.0036967635
  16
    -0.007048 !GC
 C          0.0000000000        0.0000000000        0.0000000000
 C          1.4950303761        0.0000000000        0.0000000000
 C          2.2121716514        1.1881611960        0.0000000000
 C          3.6025961749        1.1975186095        0.0023931097
 C          4.2970446130       -0.0095323598        0.0040785501
 C          3.6008886513       -1.2014613944        0.0041743648
 C          2.2170601302       -1.1890899998        0.0022088471
 Cl         1.3673531972       -2.7142650254        0.0010964564
 O          4.3202978000        2.3470542361        0.0075666904
 H         -0.3606150947       -0.4818288370        0.9112518612
 H         -0.3742441259        1.0219398387        0.0375886563
 H         -0.3999119336       -0.5217822765       -0.8593645165
 H          1.6695809765        2.1219848266       -0.0003858348
 H          5.3743605453        0.0053104026        0.0066773072
 H          4.1306027292       -2.1404366033        0.0060672278
 H          3.7349708463        3.1196387541        0.0109025316
  16
    -0.006070 !GC
 C          0.0000000000        0.0000000000        0.0000000000
 C          1.4950250771        0.0000000000        0.0000000000
 C          2.2121194862        1.1881667881        0.0000000000
 C          3.6025550462        1.1975931199        0.0025926609
 C          4.2970879617       -0.0093485941        0.0047082832
 C          3.6010048294       -1.2012944429        0.0045619989
 C          2.2171415525       -1.1890787322        0.0025529270
 Cl         1.3676238871       -2.7142787127        0.0023988253
 O          4.3202763230        2.3471192087        0.0060967133
 H         -0.3738593910        1.0208233539       -0.0606315365
 H         -0.3612026205       -0.5026449543       -0.9001980212
 H         -0.3996422910       -0.5026304521        0.8707209974
 H          1.6697113172        2.1221130379        0.0004590621
 H          5.3745278004        0.0055140543        0.0077785514
 H          4.1308241523       -2.1402482538        0.0050778264
 H          3.7351481114        3.1198602620        0.0077413375
  16
    -0.004977 !GC
 C          0.0000000000        0.0000000000        0.0000000000
 C          1.4949819285        0.0000000000        0.0000000000
 C          2.2122221468        1.1880677225        0.0000000000
 C          3.6026469540        1.1971556966        0.0002901303
 C          4.2968999274       -0.0099263503        0.0013292481
 C          3.6006517032       -1.2017577198        0.0017895386
 C          2.2168821303       -1.1892159887        0.0004524607
 Cl         1.3669272678       -2.7142446477       -0.0009826360
 O          4.3204865505        2.3465852160        0.0013719884
 H         -0.3496073782        1.0332485192       -0.0379555852
 H         -0.3974524668       -0.5087562121       -0.8738418765
 H         -0.3878774729       -0.4587199388        0.9034463892
 H          1.6698090579        2.1220634777        0.0004889139
 H          5.3741563912        0.0047070489        0.0023522978
 H          4.1302079326       -2.1407932633        0.0015079681
 H          3.7349249270        3.1198118582        0.0016739950
