  33
        -36.71673613
 C          6.3926958646       -0.3748473136        0.0000739994
 C          5.1295512620        0.4780807551        0.0046522321
 C          3.8647619219       -0.3776496070        0.0013463748
 C          2.5953768445        0.4708809205        0.0021322434
 C          1.3312873523       -0.3856649368        0.0007502816
 C          0.0623443637        0.4637562367       -0.0033774592
 C         -1.2015441817       -0.3930809880       -0.0007059528
 C         -2.4697993838        0.4576606244       -0.0103363749
 C         -3.7314713281       -0.4012066360        0.0019300530
 C         -4.9968673962        0.4560500586       -0.0272905805
 O         -6.1833640748       -0.3042060734        0.0709812924
 H          6.4221878646       -1.0157465951        0.8784257233
 H          7.2793811694        0.2543041197        0.0032862618
 H          6.4220125548       -1.0064630824       -0.8849820846
 H          5.1276499989        1.1192829725        0.8890365549
 H          5.1267942586        1.1273660315       -0.8738213772
 H          3.8680044288       -1.0210885481       -0.8817041681
 H          3.8663190609       -1.0254830203        0.8811735256
 H          2.5937407787        1.1178780306       -0.8783300059
 H          2.5932039932        1.1157062487        0.8841678552
 H          1.3353952758       -1.0326530819       -0.8795343496
 H          1.3314471790       -1.0298140672        0.8830995153
 H          0.0614458111        1.1059810057       -0.8870887501
 H          0.0600826263        1.1127761096        0.8752969629
 H         -1.2022385101       -1.0314977514        0.8854749318
 H         -1.1962638712       -1.0447383043       -0.8772955310
 H         -2.4735814592        1.0914774467       -0.9000485854
 H         -2.4718024351        1.1143551942        0.8621601909
 H         -3.7255626757       -1.0663664023       -0.8650867351
 H         -3.7495320003       -1.0210467536        0.9007284098
 H         -5.0145162882        1.0680751335       -0.9399343747
 H         -5.0148805227        1.1283130954        0.8341429496
 H         -6.2205833398       -0.9266446562       -0.6685843381
