  10
  -11.5476775700000       0.333339212141581      !
 C         -1.6257508082       -0.4984088792        0.0000008808
 C         -0.6178352283        0.6521379355       -0.0000055741
 C          0.7448228869        0.1584461279        0.0000145762
 C          1.8604277968       -0.2753008911       -0.0000042942
 H         -1.4915741887       -1.1207223315        0.8819173688
 H         -1.4916089715       -1.1207154354       -0.8819257623
 H         -2.6396470806       -0.1059757584        0.0000205184
 H         -0.7645140167        1.2759131464        0.8858433799
 H         -0.7644931940        1.2758466531       -0.8858974487
 H          2.8422006396       -0.6437445185       -0.0000246529
  10
  -11.5476775700000       0.333339212141581      !
 C         -1.6256546031       -0.4984894591        0.0000071517
 C         -0.6178599815        0.6521717731       -0.0000387450
 C          0.7448616852        0.1586663981        0.0001028821
 C          1.8603013960       -0.2754599108       -0.0000441347
 H         -2.6396230943       -0.1062224899       -0.0000011724
 H         -1.4913947983       -1.1207472374        0.8819507995
 H         -1.4913960853       -1.1208153000       -0.8818908155
 H         -0.7646394285        1.2759455798        0.8857916809
 H         -0.7645645164        1.2758385052       -0.8859581593
 H          2.8421735624       -0.6435701821       -0.0002159050
  10
  -11.5476775200000       0.333321575716838      !
 C         -1.6257306446       -0.4984266029       -0.0000080351
 C         -0.6178458810        0.6521481464        0.0000759739
 C          0.7448238602        0.1584975186       -0.0001824581
 C          1.8604092975       -0.2753395864        0.0000925391
 H         -1.4911120406       -1.1209636775       -0.8816995803
 H         -2.6396731176       -0.1061037173       -0.0005540132
 H         -1.4918816983       -1.1204639368        0.8821582597
 H         -0.7644179180        1.2756407618        0.8861247595
 H         -0.7646512333        1.2760968190       -0.8856388511
 H          2.8421947033       -0.6436662498       -0.0001286566
