  8
  -27.7886100100000       0.334019032168656      !
 C          0.1685017746       -0.6520164869        0.5215953466
 H          0.2028943330       -0.7479498040        1.6139617804
 C          1.3303129026        0.2128223935        0.0190737919
 F          1.2850804420        1.4288741773        0.5637153834
 F          1.3282979623        0.3584557868       -1.3025592315
 F          2.5067608199       -0.3277123535        0.3590146615
 F          0.2574720104       -1.8782618298       -0.0311201649
 Br        -1.5064716457        0.1749923363       -0.0039201100
  8
  -27.7886081100000       0.333348138122215      !
 C         -0.2157106826        0.1157647251        0.8161173351
 H         -0.7787048406        0.8991346610        1.3386271963
 C          1.1309713533        0.6571883823        0.3224798741
 F          1.8711564758        1.0958808756        1.3478060979
 F          0.9525439022        1.6891479871       -0.5025269140
 F          1.8483758666       -0.2588897248       -0.3209188396
 F          0.0026042438       -0.9094718989        1.6636543501
 Br        -1.2392385313       -0.5119186501       -0.7082720142
  8
  -27.7886060800000       0.332632829709129      !
 C          0.0750803678       -0.7624459938       -0.3731651300
 H          0.4713787176       -1.7272769190       -0.0329673076
 C          1.2073143748        0.2577696003       -0.5388272255
 F          0.7724542594        1.4456901696       -0.9481437927
 F          2.1041328577       -0.1695542530       -1.4359739986
 F          1.8570513760        0.4352600702        0.6117543367
 F         -0.5436688966       -0.9336896392       -1.5585099946
 Br        -1.1949454632       -0.0872633694        0.9294734180
