  13
        -28.06468866
 C         -1.8262218476       -1.3428079302        0.0000471467
 C         -0.4960590249       -1.7049666295        0.0001459815
 C          0.4924309916       -0.7315281716        0.0001550340
 C          0.1350698532        0.6093226997        0.0000371242
 C         -1.1980598677        0.9816006789        0.0000500918
 C         -2.1904448261        0.0044663743        0.0000386832
 O         -3.5005267305        0.3090395629       -0.0001505382
 Cl         1.3593333751        1.8379853427        0.0000178280
 Cl         2.1673506865       -1.1939647614       -0.0001003774
 H         -2.6027429267       -2.0892457820       -0.0000938091
 H         -0.2125759909       -2.7440744923        0.0000456191
 H         -1.4496665583        2.0301455224       -0.0001258616
 H         -3.6431926686        1.2688895650       -0.0001818091
