  6
  -7.41298440000000       0.334708737083252      !
 C          1.2369183099       -0.0097476837       -0.0000004769
 S         -0.5877765750        0.0437263650       -0.0000001337
 H          1.5693462378        1.0230130546       -0.0000271320
 H          1.5816955911       -0.5141430762       -0.8960376428
 H          1.5817188310       -0.5140791039        0.8960609774
 H         -0.7735678474       -1.2696671429        0.0000137345
  6
  -7.41298422000000       0.334644989484065      !
 C          1.2369199737       -0.0097483217       -0.0000008797
 S         -0.5877773911        0.0437257997       -0.0000005366
 H          1.5817183020       -0.5142061158       -0.8960051800
 H          1.5817369362       -0.5140109732        0.8960955529
 H          1.5693031143        1.0230308562       -0.0000905066
 H         -0.7735594054       -1.2696644512        0.0000276855
  6
  -7.41297286000000       0.330646273432683      !
 C          1.2353884785       -0.0627066082        0.0000009047
 S         -0.5893345130       -0.0092317358        0.0000012479
 H          1.6091060438        0.4204749954       -0.8961118211
 H          1.5065769468       -1.1132150639        0.0001598860
 H          1.6090869479        0.4208251395        0.8959528778
 H         -0.6977860851        1.3128155553       -0.0000514208
