  11
  -17.6275713100000       0.135041451388274      !
 C          2.0224749913        0.0384398552       -0.0004239770
 C          0.7413663117       -0.7863158142        0.0005415807
 C         -0.4919634766        0.0829363451        0.0000844950
 O         -0.4759373959        1.2916337412        0.0001732818
 O         -1.6608850123       -0.5630259530       -0.0003224154
 H          2.0588188586        0.6794300527        0.8766503503
 H          2.8904947464       -0.6138708179        0.0005620507
 H          2.0589737321        0.6770595662       -0.8792439406
 H          0.7077055756       -1.4261157171       -0.8842315353
 H          0.7080378654       -1.4243439175        0.8866096927
 H         -1.5774354991       -1.5341162354       -0.0003875972
  11
  -17.6275710200000       0.135000016697889      !
 C          2.0228757334        0.0381211853        0.0014959747
 C          0.7413760362       -0.7860658871       -0.0019932274
 C         -0.4920801006        0.0830287372        0.0000860230
 O         -0.4762370367        1.2917355422       -0.0007819801
 O         -1.6608995006       -0.5631302144        0.0011589062
 H          2.8909454650       -0.6143010498        0.0004897832
 H          2.0605991837        0.6811387505       -0.8740182336
 H          2.0581850613        0.6751935166        0.8814527364
 H          0.7085517181       -1.4214939800       -0.8899698642
 H          0.7071146465       -1.4284970647        0.8808907179
 H         -1.5773159751       -1.5342399928        0.0000720354
  11
  -17.6275704600000       0.134920040856704      !
 C          2.0225256468        0.0383817908        0.0033556736
 C          0.7413774286       -0.7862709955       -0.0043886719
 C         -0.4919832192        0.0829548424       -0.0008156478
 O         -0.4760008853        1.2916428281       -0.0015108273
 O         -1.6608771841       -0.5630279367        0.0028379726
 H          2.0584995663        0.6872748999       -0.8679223485
 H          2.0595675358        0.6689878629        0.8878933359
 H          2.8904842310       -0.6139456354       -0.0038259186
 H          0.7091557382       -1.4184879873       -0.8947045816
 H          0.7066442801       -1.4318673410        0.8760492163
 H         -1.5773733748       -1.5340941986        0.0034727185
  11
  -17.6265043800000       4.366565893335823E-002 !
 C          1.8169083845       -0.4824096192        0.5069492955
 C          0.8326120912       -0.3441857803       -0.6604890743
 C         -0.4753369618        0.2084878144       -0.1509367958
 O         -0.7795418494        1.3781289101       -0.2198227451
 O         -1.3011511195       -0.6576597692        0.4317464785
 H          1.4294786703       -1.1457989471        1.2757020357
 H          2.7593560898       -0.8815606148        0.1443405909
 H          2.0011855603        0.4905793318        0.9558194116
 H          1.2323729855        0.3551084363       -1.3942310731
 H          0.6742772340       -1.3123315672       -1.1361476781
 H         -0.9769015055       -1.5768217898        0.4187525853
  11
  -17.6265029800000       4.360101734257769E-002 !
 C          1.8178092288       -0.4815685564       -0.5068243448
 C          0.8326718152       -0.3447238218        0.6600467528
 C         -0.4754560266        0.2079617901        0.1507942190
 O         -0.7791525811        1.3777577613        0.2202901183
 O         -1.3022643578       -0.6572760071       -0.4317912256
 H          1.9917046604        0.4900172599       -0.9629586377
 H          2.7645026992       -0.8679537877       -0.1414884412
 H          1.4374267138       -1.1550931984       -1.2701210188
 H          0.6750268824       -1.3132106586        1.1351848085
 H          1.2316332043        0.3546758254        1.3941783579
 H         -0.9790607412       -1.5768034775       -0.4202586486
  11
  -17.6265020500000       4.355812976359807E-002 !
 C          1.8187172761       -0.4765629297        0.5064402770
 C          0.8314900440       -0.3489527001       -0.6597257727
 C         -0.4755789473        0.2065298510       -0.1508137985
 O         -0.7757795023        1.3772706949       -0.2195288786
 O         -1.3048571046       -0.6565709287        0.4313421063
 H          2.7647281338       -0.8662495127        0.1427676957
 H          1.9936062738        0.4987005134        0.9543240895
 H          1.4389697858       -1.1436783246        1.2757594854
 H          1.2285442246        0.3458634513       -1.3992396367
 H          0.6743143313       -1.3209653151       -1.1276939436
 H         -0.9865893567       -1.5776921033        0.4155765619
  11
  -17.6265002100000       4.347340117866782E-002 !
 C          1.8169965763       -0.4811336574       -0.5070839419
 C          0.8323176673       -0.3453822282        0.6603265237
 C         -0.4753645055        0.2081414913        0.1510504952
 O         -0.7788101150        1.3779238984        0.2203300067
 O         -1.3015943764       -0.6573352985       -0.4320704063
 H          1.4309424909       -1.1450716392       -1.2761162350
 H          1.9991263491        0.4926087089       -0.9553277426
 H          2.7602935861       -0.8784009500       -0.1446182123
 H          0.6738959192       -1.3145131731        1.1339303642
 H          1.2317519799        0.3525570949        1.3955775956
 H         -0.9780346988       -1.5767220795       -0.4184051867
  11
  -17.6264714700000       4.217116797383929E-002 !
 C          1.8126488299       -0.4978945932        0.5082434584
 C          0.8365414917       -0.3303358276       -0.6621195331
 C         -0.4747602311        0.2125813691       -0.1508386374
 O         -0.7886845283        1.3795660982       -0.2204164975
 O         -1.2929607721       -0.6601694998        0.4327332978
 H          1.9881387173        0.4625776283        0.9868354553
 H          1.4236527420       -1.1862018223        1.2539603829
 H          2.7601361298       -0.8808282266        0.1412234302
 H          1.2419627650        0.3847228569       -1.3773784867
 H          0.6789541082       -1.2869883789       -1.1610523391
 H         -0.9608969636       -1.5763785177        0.4172458077
  11
  -17.6264693600000       4.207711360574511E-002 !
 C          1.8141737075       -0.4906225990       -0.5079860876
 C          0.8346600143       -0.3369506850        0.6614828397
 C         -0.4749681402        0.2106818486        0.1510487455
 O         -0.7844170709        1.3788159623        0.2207607450
 O         -1.2963786650       -0.6588689496       -0.4327752842
 H          2.7607480141       -0.8775480311       -0.1428982694
 H          1.4271067081       -1.1703754635       -1.2625251505
 H          1.9905682932        0.4753619512       -0.9750123162
 H          0.6766258212       -1.2991222747        1.1494844759
 H          1.2374735143        0.3708421307        1.3853944693
 H         -0.9673335421       -1.5761873131       -0.4180589811
  11
  -17.6262159000000       3.217835136323930E-002 !
 C          1.6761129572       -1.0988963838        0.0026085799
 C          1.0519199755        0.2916506087       -0.0036637877
 C         -0.4577493810        0.3475120025       -0.0004220997
 O         -1.0585211827        1.4018497048       -0.0005912637
 O         -1.1343607995       -0.7936895301        0.0018381662
 H          2.7580358364       -0.9987184670        0.0019829499
 H          1.3997204119       -1.6534990503        0.8966283438
 H          1.3998454319       -1.6617413103       -0.8862729663
 H          1.3802883699        0.8654358851        0.8659723022
 H          1.3762994774        0.8552583274       -0.8814124232
 H         -0.5587429719       -1.5820402960        0.0009130264
  11
  -17.6262152500000       3.215622584595300E-002 !
 C          1.6759998747       -1.0989204731        0.0034014244
 C          1.0519455807        0.2916976155       -0.0046676525
 C         -0.4577223735        0.3475075255       -0.0007874784
 O         -1.0584833893        1.4018410866       -0.0008926276
 O         -1.1343413328       -0.7937034451        0.0025527274
 H          1.3997325328       -1.6524540415        0.8981653393
 H          1.3997349666       -1.6628925204       -0.8847844078
 H          2.7579147808       -0.9985901969        0.0026348792
 H          1.3807277143        0.8666915636        0.8639963554
 H          1.3758596495        0.8541367426       -0.8833779195
 H         -0.5587114338       -1.5820585199        0.0014865924
  11
  -17.6262115300000       3.202989216971310E-002 !
 C          1.6760922424       -1.0987834024       -0.0108602862
 C          1.0518848517        0.2915504942        0.0137797766
 C         -0.4577374530        0.3474755520        0.0026748286
 O         -1.0584431089        1.4018413891        0.0053388283
 O         -1.1343898490       -0.7936705198       -0.0094217129
 H          1.4008997985       -1.6407187220       -0.9130103668
 H          2.7580202551       -0.9984757865       -0.0072423626
 H          1.3987340627       -1.6741210165        0.8696459313
 H          1.3710437924        0.8410604841        0.9023783197
 H          1.3853494621        0.8791707278       -0.8445371673
 H         -0.5588557523       -1.5821093321       -0.0090877997
  11
  -17.6261796200000       3.096639547823126E-002 !
 C          1.6870262662       -1.0656619515       -0.1752848840
 C          1.0376001405        0.2540886579        0.2272038170
 C         -0.4590160813        0.3410009817        0.0427116236
 O         -1.0492666759        1.4004531560        0.0776716239
 O         -1.1382218430       -0.7830997269       -0.1473394779
 H          1.4511530427       -1.3189862843       -1.2063396829
 H          2.7660497510       -0.9652534715       -0.0974292350
 H          1.3896305194       -1.8785091915        0.4832320516
 H          1.2267755047        0.4644049732        1.2832037217
 H          1.4660462796        1.0857810001       -0.3347345718
 H         -0.5741342265       -1.5795165021       -0.1496978664
  11
  -17.6261794400000       3.096049771363991E-002 !
 C          1.6871585362       -1.0663955310       -0.1732774128
 C          1.0378813555        0.2548870467        0.2245630071
 C         -0.4590993130        0.3411385199        0.0423063294
 O         -1.0496023406        1.4004768841        0.0767493000
 O         -1.1382629551       -0.7833035621       -0.1456844388
 H          2.7662336503       -0.9654678367       -0.0967544266
 H          1.3905758204       -1.8768323635        0.4885201838
 H          1.4505626323       -1.3237609344       -1.2031716710
 H          1.2288818338        0.4699645906        1.2793036339
 H          1.4654356149        1.0841624366       -0.3417110996
 H         -0.5741233043       -1.5796976591       -0.1472063851
  11
  -17.6262033400000       3.175350082053214E-002 !
 C          1.9122724744       -0.2161671896       -0.4208384114
 C          0.7794490196       -0.5696758340        0.5481021193
 C         -0.4861141579        0.1366329131        0.1232218754
 O         -0.6190626712        1.3385829993        0.1831579193
 O         -1.4754468019       -0.6116773485       -0.3579804597
 H          1.6987445118       -0.5905676562       -1.4187512689
 H          2.0265134142        0.8636390270       -0.4763873047
 H          2.8447547228       -0.6521618519       -0.0755120378
 H          0.6390844522       -1.6491510208        0.5863132310
 H          1.0395790846       -0.2065790372        1.5433469648
 H         -1.2840426443       -1.5675524326       -0.3688032393
  11
  -17.6261922200000       3.138204313616391E-002 !
 C          1.9426740283       -0.1463577040       -0.3718354376
 C          0.7686519047       -0.6277632899        0.4845018945
 C         -0.4883457945        0.1192245092        0.1049623579
 O         -0.5785198325        1.3251822386        0.1626275517
 O         -1.5273359772       -0.5982858604       -0.3152363068
 H          2.8658994189       -0.6014433716       -0.0265115159
 H          1.7908875085       -0.4088956788       -1.4158435964
 H          2.0323274564        0.9347836247       -0.3000524621
 H          0.6386251880       -1.7042336698        0.3798116605
 H          0.9761446560       -0.3951069104        1.5307966360
 H         -1.3661624950       -1.5595703014       -0.3390767889
  11
  -17.6261798300000       3.097327762377543E-002 !
 C          1.6867199397       -1.0677806787        0.1692100868
 C          1.0384544061        0.2565367449       -0.2198499542
 C         -0.4590156990        0.3413954107       -0.0411308561
 O         -1.0498534984        1.4006290313       -0.0738591899
 O         -1.1382183685       -0.7838872511        0.1416569240
 H          2.7659316635       -0.9667229111        0.0946047750
 H          1.4489463100       -1.3325626775        1.1969594254
 H          1.3904641890       -1.8731407799       -0.4989309142
 H          1.4643421081        1.0812634568        0.3542678249
 H          1.2323383925        0.4802422751       -1.2722527784
 H         -0.5737759593       -1.5800746658        0.1427242388
  11
  -17.6261797600000       3.097098340529128E-002 !
 C          1.6860757609       -1.0704202641        0.1617982816
 C          1.0396236757        0.2595990697       -0.2101935136
 C         -0.4589568762        0.3418333891       -0.0394236249
 O         -1.0506003528        1.4007001639       -0.0705531669
 O         -1.1380962796       -0.7846992117        0.1354708957
 H          1.3908811229       -1.8660683661       -0.5183425704
 H          2.7655064635       -0.9689418670        0.0910360201
 H          1.4460955450       -1.3494755798        1.1852584369
 H          1.4618953608        1.0751604172        0.3795982322
 H          1.2400310337        0.5003805278       -1.2575608529
 H         -0.5732036766       -1.5805474184        0.1360077728
  11
  -17.6260347600000       2.656547644870506E-002 !
 C          1.7436252237       -0.8622428898        0.4165725847
 C          0.9549218402        0.0297835274       -0.5425474395
 C         -0.4660934423        0.2994228959       -0.1090588209
 O         -0.9786518501        1.3950810673       -0.1827158307
 O         -1.1722009090       -0.7279621632        0.3508707353
 H          1.6891607092       -0.4750404772        1.4311515512
 H          1.3873702761       -1.8890246874        0.4097514381
 H          2.7865807649       -0.8742663422        0.1135586477
 H          1.4410768030        0.9993555781       -0.6526566657
 H          0.9097159948       -0.4322249384       -1.5322528052
 H         -0.6748171969       -1.5664939096        0.3619525862
  11
  -17.6260344000000       2.655535825410250E-002 !
 C          1.7422567581       -0.8643501504       -0.4159536029
 C          0.9556758615        0.0317383488        0.5411123058
 C         -0.4659539429        0.2999915622        0.1091234468
 O         -0.9796392812        1.3950786870        0.1831955549
 O         -1.1708430048       -0.7282168675       -0.3508454260
 H          2.7865792416       -0.8716075378       -0.1172018809
 H          1.3886969784       -1.8920727310       -0.4011796450
 H          1.6825287563       -0.4835944925       -1.4327171675
 H          0.9118813354       -0.4264902374        1.5326388342
 H          1.4420475170        1.0016544685        0.6469093805
 H         -0.6728676342       -1.5664632601       -0.3590155822
