  15
        -15.78107369
 C         -2.0692727928        0.0707601554       -0.0001326622
 C         -0.7066249558        0.6856347230        0.0002166613
 C          0.4516494707        0.0373031357        0.0002059289
 C          1.7618089715        0.7680709474       -0.0001378244
 C          0.5563704657       -1.4646277538        0.0000282840
 H         -2.6249870997        0.3971925245        0.8787843555
 H         -2.6244202576        0.3978867262       -0.8791378680
 H         -2.0232328380       -1.0133308081       -0.0006330996
 H         -0.7025937292        1.7689567718        0.0001597871
 H          2.3428604075        0.4958666336        0.8804615688
 H          2.3430732100        0.4942385669       -0.8800639259
 H          1.6133725470        1.8448525741       -0.0011860797
 H          0.0689595746       -1.8866336679        0.8773661837
 H          0.0808784647       -1.8850584702       -0.8846365727
 H          1.5984067126       -1.7715164613        0.0067361330
