  15
    -0.251315 !GC
 C          0.0000000000        0.0000000000        0.0000000000
 C          1.4986643265        0.0000000000        0.0000000000
 C          2.2229030586        1.1839073540        0.0000000000
 C          3.6065500350        1.1683189672       -0.0576979571
 C          4.2863041046       -0.0352170052       -0.1162258940
 C          3.5737525656       -1.2236414667       -0.1176317552
 C          2.1929068579       -1.2042276660       -0.0609724122
 H         -0.4058037931        0.8250344477       -0.5738771434
 H         -0.3551959943       -0.9348338940       -0.4386766651
 H         -0.3824809386        0.0330731315        1.0181701744
 H          1.7010540330        2.1293564090        0.0456071766
 H          4.1546366932        2.0991089228       -0.0489397845
 H          5.3656621598       -0.0490000603       -0.1537418876
 H          4.0979336962       -2.1674427779       -0.1532162134
 H          1.6416131974       -2.1334863808       -0.0485062843
  15
    -0.160596 !GC
 C          0.0000000000        0.0000000000        0.0000000000
 C          1.4983905469        0.0000000000        0.0000000000
 C          2.1960322500        1.2037511936        0.0000000000
 C          3.5785321194        1.2214927828       -0.0022963646
 C          4.2889204373        0.0319514495       -0.0053322836
 C          3.6060432112       -1.1714229291       -0.0055043272
 C          2.2210757986       -1.1854621481       -0.0031817096
 H         -0.3803975470       -0.7516131097       -0.6884140695
 H         -0.3773056170       -0.2241086577        0.9965117755
 H         -0.3844802039        0.9716107053       -0.3007764646
 H          1.6463155767        2.1338853107        0.0020342024
 H          4.1048647032        2.1647581787       -0.0002112713
 H          5.3684053189        0.0443081235       -0.0056716238
 H          4.1525745864       -2.1032204305       -0.0045535146
 H          1.6965052123       -2.1304583020        0.0001120344
  15
    -0.158808 !GC
 C          0.0000000000        0.0000000000        0.0000000000
 C          1.4985697022        0.0000000000        0.0000000000
 C          2.2248281934        1.1825804425        0.0000000000
 C          3.6087989823        1.1645097578       -0.0556182721
 C          4.2864667132       -0.0401659230       -0.1128108273
 C          3.5719563952       -1.2274211984       -0.1140032858
 C          2.1911023234       -1.2056818429       -0.0585089583
 H         -0.3914436920        0.0443058899        1.0116996412
 H         -0.3522456961        0.8915412072       -0.5257463390
 H         -0.3988439102       -0.8655914487       -0.5187630346
 H          1.7048885760        2.1290608588        0.0444782441
 H          4.1584428903        2.0943785336       -0.0472137488
 H          5.3656059080       -0.0559204587       -0.1493025584
 H          4.0947220053       -2.1719718817       -0.1499248398
 H          1.6377973887       -2.1339638016       -0.0491202628
  15
    -0.158442 !GC
 C          0.0000000000        0.0000000000        0.0000000000
 C          1.4985813094        0.0000000000        0.0000000000
 C          2.2098413519        1.1935821710        0.0000000000
 C          3.5936590457        1.1939093861        0.0147361441
 C          4.2886807836       -0.0033448804        0.0301651946
 C          3.5905753344       -1.1993091906        0.0305427359
 C          2.2071181040       -1.1956392010        0.0150712419
 H         -0.3846418407       -1.0178862869       -0.0045858580
 H         -0.3727203232        0.4996435749        0.8929909232
 H         -0.3859352558        0.5244209767       -0.8708356135
 H          1.6738738824        2.1319154952       -0.0127056753
 H          4.1307821547        2.1312601174        0.0150984966
 H          5.3682784385       -0.0043233524        0.0428387743
 H          4.1259917286       -2.1374679587        0.0463201880
 H          1.6682629932       -2.1324024481        0.0215835341
  15
    -0.108388 !GC
 C          0.0000000000        0.0000000000        0.0000000000
 C          1.4984927411        0.0000000000        0.0000000000
 C          2.2061366521        1.1963752273        0.0000000000
 C          3.5889956564        1.2017509530       -0.0401814754
 C          4.2878379235        0.0070090033       -0.0815173820
 C          3.5937947272       -1.1908548838       -0.0824968286
 C          2.2104484737       -1.1924412646       -0.0429229724
 H         -0.3983855230       -0.9767951330        0.2532509099
 H         -0.3626563241        0.7250263338        0.7300761982
 H         -0.3818496048        0.3056653048       -0.9719053841
 H          1.6669620111        2.1322862183        0.0319145297
 H          4.1235291783        2.1403654702       -0.0328014264
 H          5.3673635445        0.0096378635       -0.1068989862
 H          4.1319526628       -2.1271907831       -0.1057407190
 H          1.6760180305       -2.1316843021       -0.0325364784
  15
    -0.082234 !GC
 C          0.0000000000        0.0000000000        0.0000000000
 C          1.4985888794        0.0000000000        0.0000000000
 C          2.2217703689        1.1847722268        0.0000000000
 C          3.6065331125        1.1699854267       -0.0210992489
 C          4.2883349811       -0.0337514022       -0.0426194531
 C          3.5771751291       -1.2229089995       -0.0428329721
 C          2.1950383703       -1.2042228818       -0.0222272653
 H         -0.3881862994       -0.4202296694       -0.9242594141
 H         -0.3550942314       -0.6307671951        0.8181848525
 H         -0.3996607135        0.9976014742        0.1492891332
 H          1.6979679505        2.1299926100        0.0160332149
 H          4.1532736435        2.1017373389       -0.0157714682
 H          5.3679158174       -0.0465934929       -0.0539715967
 H          4.1030863426       -2.1664630585       -0.0515911345
 H          1.6444654298       -2.1341308870       -0.0116497508
  15
    -0.067328 !GC
 C          0.0000000000        0.0000000000        0.0000000000
 C          1.4984851712        0.0000000000        0.0000000000
 C          2.1940685871        1.2050291452        0.0000000000
 C          3.5762614229        1.2251943613       -0.0043838892
 C          4.2887624713        0.0368196481       -0.0087539875
 C          3.6078787766       -1.1676768086       -0.0091440750
 C          2.2229345551       -1.1840213236       -0.0056555133
 H         -0.3948769197       -0.1786892840        0.9958107686
 H         -0.3801801214        0.9470192999       -0.3760755004
 H         -0.3679392169       -0.7862498635       -0.6598333517
 H          1.6424306865        2.1340971075        0.0031578755
 H          4.1009918405        2.1693566028       -0.0019443088
 H          5.3684494925        0.0511335648       -0.0101112574
 H          4.1557970242       -2.0986822037       -0.0078602164
 H          1.7002795026       -2.1298825406        0.0007314846
  15
    -0.062008 !GC
 C          0.0000000000        0.0000000000        0.0000000000
 C          1.4984866852        0.0000000000        0.0000000000
 C          2.2117841620        1.1922774859        0.0000000000
 C          3.5958451901        1.1901915992        0.0168303124
 C          4.2887208951       -0.0081871609        0.0335909367
 C          3.5886322652       -1.2029985761        0.0341883233
 C          2.2052010754       -1.1970350815        0.0175523350
 H         -0.3700525477        0.5519655625       -0.8640066959
 H         -0.3698223825       -1.0216188997       -0.0912776172
 H         -0.4022504593        0.4437449093        0.9038762701
 H          1.6777720375        2.1316348850       -0.0138240132
 H          4.1345664393        2.1266192877        0.0168357369
 H          5.3680755107       -0.0111117548        0.0472804289
 H          4.1226550178       -2.1419339139        0.0496343236
 H          1.6644877842       -2.1329252639        0.0209692313
  15
    -0.042536 !GC
 C          0.0000000000        0.0000000000        0.0000000000
 C          1.4986582705        0.0000000000        0.0000000000
 C          2.2284802361        1.1797314337        0.0000000000
 C          3.6139294492        1.1562173099       -0.0006317646
 C          4.2883742236       -0.0512951596       -0.0011238073
 C          3.5698475431       -1.2365920583       -0.0009588249
 C          2.1883436487       -1.2092153231       -0.0004441861
 H         -0.3776262252       -0.2173312993        0.9979905975
 H         -0.3623934179        0.9945967077       -0.2656580331
 H         -0.4028767510       -0.7176810460       -0.7060779294
 H          1.7112865696        2.1288815580       -0.0000568752
 H          4.1660351785        2.0848520109        0.0007328571
 H          5.3679113775       -0.0708905993        0.0004542358
 H          4.0902911277       -2.1831971287        0.0021439150
 H          1.6306533958       -2.1349185061        0.0049153928
  15
    -0.039911 !GC
 C          0.0000000000        0.0000000000        0.0000000000
 C          1.4984675080        0.0000000000        0.0000000000
 C          2.2148643960        1.1901113002        0.0000000000
 C          3.5991071440        1.1841689990       -0.0176721616
 C          4.2888230670       -0.0157687337       -0.0366237367
 C          3.5854058625       -1.2087314497       -0.0370098526
 C          2.2022930783       -1.1991370366       -0.0187088569
 H         -0.3733693808       -0.8327346616        0.5936692807
 H         -0.3670088579        0.9160635449        0.4657038373
 H         -0.4014354241       -0.0654308468       -1.0052318281
 H          1.6839254557        2.1312351011        0.0146726662
 H          4.1405461638        2.1188729356       -0.0145865523
 H          5.3683442331       -0.0219477583       -0.0480609736
 H          4.1168936228       -2.1490496913       -0.0487345967
 H          1.6586697762       -2.1333278941       -0.0165493121
