  15
  -19.0515659700000       0.200377771658894      !
 C         -2.4398519108       -0.0006406811        0.0062172673
 C         -0.9413619153       -0.0033466662       -0.0085109193
 C         -0.2291494274       -1.1960578350       -0.0049209886
 C          1.1549287519       -1.1949721893        0.0015130551
 C          1.8490594538        0.0026693560        0.0047084854
 C          1.1497788731        1.1980480182        0.0015722872
 C         -0.2334724600        1.1931763724       -0.0049569841
 H         -2.8331131764       -0.9425845893       -0.3670699458
 H         -2.7995715000        0.1387753874        1.0255890863
 H         -2.8294763950        0.8131314295       -0.6008041761
 H         -0.7638223243       -2.1352452957       -0.0087966655
 H          1.6930591467       -2.1315941333        0.0025055349
 H          2.9288745549        0.0049835652        0.0074507154
 H          1.6844138898        2.1366706811        0.0021464810
 H         -0.7735413751        2.1292521977       -0.0088547052
  15
  -19.0515651500000       0.200203975319045      !
 C         -2.4398557946       -0.0066670386       -0.0085615579
 C         -0.9413737275        0.0013862358        0.0069614315
 C         -0.2304058170       -1.1934864491        0.0043714150
 C          1.1527485595       -1.1949424655       -0.0001206351
 C          1.8490709464        0.0022639268       -0.0022954975
 C          1.1519737674        1.1980841740       -0.0001205084
 C         -0.2322228159        1.1957499700        0.0043852071
 H         -2.7988347521       -0.1884575556       -1.0214244570
 H         -2.8267164874       -0.7971615218        0.6303409729
 H         -2.8366474486        0.9477180903        0.3273611912
 H         -0.7683626047       -2.1307688770        0.0069213336
 H          1.6897738645       -2.1321978674       -0.0007163755
 H          2.9288933489        0.0026192909       -0.0043214923
 H          1.6877174110        2.1360708956       -0.0003574480
 H         -0.7690452322        2.1337176570        0.0071455642
  15
  -19.0515633200000       0.199816656151999      !
 C         -2.4398752475        0.0036187217       -0.0015768551
 C         -0.9413078823       -0.0066668697       -0.0003710396
 C         -0.2282512743       -1.1979032144       -0.0000858579
 C          1.1564727474       -1.1950174074        0.0005986620
 C          1.8490518597        0.0029679051        0.0010362282
 C          1.1482486495        1.1980477351        0.0006635481
 C         -0.2343597505        1.1913614241       -0.0000264010
 H         -2.8142385128        0.5323266652        0.8734948373
 H         -2.8124884500        0.5182605995       -0.8858100574
 H         -2.8357719256       -1.0081499046        0.0059141572
 H         -0.7607648569       -2.1383006477       -0.0000355993
 H          1.6954197842       -2.1311463293        0.0010729045
 H          2.9288649233        0.0066633398        0.0017754859
 H          1.6820852909        2.1371195785        0.0009535524
 H         -0.7768522684        2.1260258662       -0.0002047084
  15
  -19.0515632600000       0.199803969857907      !
 C         -2.4398484259       -0.0076499932       -0.0077298159
 C         -0.9413640905        0.0021396186        0.0060537530
 C         -0.2306198677       -1.1930760229        0.0039094072
 C          1.1523869152       -1.1949401589       -0.0000813071
 C          1.8490640048        0.0021973244       -0.0019149525
 C          1.1523317250        1.1980976937        0.0000184107
 C         -0.2320134360        1.1961730574        0.0038052107
 H         -2.8247480187       -0.7616932456        0.6752336108
 H         -2.8371202731        0.9633658828        0.2756549181
 H         -2.8002848196       -0.2470169489       -1.0079044351
 H         -0.7691199640       -2.1300433225        0.0062981037
 H          1.6892238303       -2.1323006253       -0.0000182170
 H          2.9288833633        0.0022334330       -0.0029918988
 H          1.6882680438        2.1359756928       -0.0007255760
 H         -0.7683443987        2.1344276599        0.0060656614
  15
  -19.0515632300000       0.199797627012155      !
 C         -2.4398782778       -0.0101478372       -0.0018244770
 C         -0.9413195973        0.0041040356       -0.0001437623
 C         -0.2311207220       -1.1920041969        0.0001455762
 C          1.1514977585       -1.1949490468        0.0006336901
 C          1.8490557442        0.0020152842        0.0008857874
 C          1.1532348421        1.1981198971        0.0006092737
 C         -0.2314992798        1.1972709886        0.0000991614
 H         -2.8384232325        1.0006050960        0.0149026739
 H         -2.8108396839       -0.5173928428       -0.8910698187
 H         -2.8131185645       -0.5482585030        0.8679487218
 H         -0.7710811437       -2.1281327654       -0.0002967620
 H          1.6878717655       -2.1325743095        0.0009936712
 H          2.9288805907        0.0012336598        0.0014735333
 H          1.6896583712        2.1357138200        0.0013423378
 H         -0.7665912332        2.1362662185       -0.0001233566
