  15
  -23.0952990200000       0.500674598801539      !
 C         -2.6769834011        0.0002588078       -0.4071873284
 C         -2.0199229757        1.1985706532       -0.1822188581
 C         -0.7113310209        1.1988487405        0.2668143345
 C         -0.0466161197       -0.0002270025        0.4993401529
 C         -0.7116498154       -1.1990425956        0.2663903596
 C         -2.0202621367       -1.1983009627       -0.1826060680
 C          1.3729920565       -0.0005351612        0.9597000082
 Cl         2.4761138390        0.0001833654       -0.4829230834
 H         -3.6976459829        0.0004798991       -0.7580013329
 H         -2.5274203494        2.1349329824       -0.3573658221
 H         -0.1987226031        2.1336837424        0.4382705534
 H         -0.1993329331       -2.1340960037        0.4376007546
 H         -2.5278800351       -2.1344627964       -0.3585396005
 H          1.6253666065       -0.8972780214        1.5212604422
 H          1.6254110725        0.8953849520        1.5225045066
  15
  -23.0952964700000       0.499325401198461      !
 C         -2.7060978144       -0.0003295600       -0.1046016051
 C         -2.0205413350        1.1994631681       -0.1982014379
 C         -0.6506602534        1.2026805571       -0.3921077276
 C          0.0479641572        0.0051366541       -0.4986281620
 C         -0.6468746000       -1.1951767091       -0.3983843591
 C         -2.0166511496       -1.1974189646       -0.2043604565
 C          1.5287679634        0.0077180597       -0.6838006893
 Cl         2.3416229743       -0.0084065051        0.9400236229
 H         -3.7745258120       -0.0024799870        0.0479968957
 H         -2.5535777826        2.1346503807       -0.1184933239
 H         -0.1164694915        2.1386353483       -0.4606329238
 H         -0.1096134612       -2.1289308770       -0.4718954547
 H         -2.5468405723       -2.1347242158       -0.1308777974
 H          1.8818414664        0.9088496821       -1.1799510362
 H          1.8826627410       -0.8833398166       -1.1972253989
