  15
    -0.242320 !GC
 C          0.0000000000        0.0000000000        0.0000000000
 C          1.3761841882        0.0000000000        0.0000000000
 C          2.0767509610        1.2089065663        0.0000000000
 C          1.3724520222        2.4184434431       -0.0035345510
 C         -0.0004190569        2.4133810307       -0.0035746002
 C         -0.7104626816        1.2046047267       -0.0005955546
 C         -2.1588317880        1.2028423248        0.0039161405
 O         -2.8730349024        2.1903426159        0.0040706402
 O          3.4179172687        1.2649539325        0.0016897856
 H         -0.5411919652       -0.9339386875        0.0028010944
 H          1.9171776705       -0.9344804787        0.0009494222
 H          1.9335543110        3.3393669979       -0.0059095453
 H         -0.5610599641        3.3357721303       -0.0038164464
 H         -2.6160359805        0.1956970004        0.0042034510
 H          3.8115878461        0.3774077681        0.0072190655
  15
    -0.152807 !GC
 C          0.0000000000        0.0000000000        0.0000000000
 C          1.3726394370        0.0000000000        0.0000000000
 C          2.0829669991        1.2085071908        0.0000000000
 C          1.3866339304        2.4178039575       -0.0008473059
 C          0.0101736099        2.4129575807       -0.0016222060
 C         -0.7053347285        1.2100548471       -0.0009779841
 C         -2.1535537331        1.2220164148       -0.0033492137
 O         -2.8751354031        0.2401356039       -0.0028132521
 O          3.4143138068        1.0370937020       -0.0044611930
 H         -0.5255019908       -0.9421173974        0.0019201821
 H          1.9577834528       -0.9037156302        0.0007505354
 H          1.8999520007        3.3690652638       -0.0009500051
 H         -0.5654701120        3.3269349088       -0.0015733889
 H         -2.6040441958        2.2325166018       -0.0012738051
 H          3.6568949946        0.0968635716       -0.0050673530
  15
    -0.147021 !GC
 C          0.0000000000        0.0000000000        0.0000000000
 C          1.3715494916        0.0000000000        0.0000000000
 C          2.0785506853        1.2104480078        0.0000000000
 C          1.3790671995        2.4177710882       -0.0031541987
 C          0.0015391447        2.4128528394       -0.0036842289
 C         -0.7098430255        1.2092181541       -0.0008031707
 C         -2.1581653184        1.2149507437        0.0018540769
 O         -2.8675830331        2.2058520243        0.0006816139
 O          3.4104976213        1.0428758234       -0.0018764581
 H         -0.5412742506       -0.9332627424        0.0051318757
 H          1.9567429589       -0.9034609507        0.0025721997
 H          1.8922031908        3.3693188334       -0.0032830391
 H         -0.5580833489        3.3364198339        0.0019931264
 H         -2.6204474688        0.2100551537        0.0022400252
 H          3.6540462356        0.1027397569        0.0021770775
  15
    -0.113158 !GC
 C          0.0000000000        0.0000000000        0.0000000000
 C          1.3772742598        0.0000000000        0.0000000000
 C          2.0811634573        1.2069832768        0.0000000000
 C          1.3800203290        2.4185069260       -0.0012222958
 C          0.0082168941        2.4135145300       -0.0014982615
 C         -0.7059627952        1.2054637349       -0.0007580506
 C         -2.1542671664        1.2099296436       -0.0012699491
 O         -2.8704241389        0.2240436874       -0.0002198410
 O          3.4223830460        1.2591401105       -0.0006804851
 H         -0.5254088159       -0.9427836714       -0.0004352510
 H          1.9182049301       -0.9347296825       -0.0009352491
 H          1.9412847910        3.3391372657       -0.0036848976
 H         -0.5684270620        3.3262613892       -0.0072894806
 H         -2.6101062846        2.2179541979        0.0020670928
 H          3.8151256094        0.3713403145       -0.0000208935
  15
    -0.022022 !GC
 C          0.0000000000        0.0000000000        0.0000000000
 C          1.3748644951        0.0000000000        0.0000000000
 C          2.0817192885        1.2077820885        0.0000000000
 C          1.3833920997        2.4183951225       -0.0032339093
 C          0.0092733392        2.4134026591       -0.0037836423
 C         -0.7055471145        1.2078591670       -0.0010764703
 C         -2.1537919887        1.2156294266        0.0008017808
 O         -2.8716143608        0.2308603410        0.0041674662
 O          3.4226639795        1.1477199054       -0.0010167168
 H         -0.5256470715       -0.9423068992        0.0033667387
 H          1.9384111815       -0.9193025017        0.0013565789
 H          1.9214612485        3.3545288551       -0.0052085186
 H         -0.5670166790        3.3266634508       -0.0041417724
 H         -2.6072024477        2.2244943754        0.0042563095
 H          3.8199288280        2.0335088133       -0.0049348322
