  13
    -0.489021 !GC
 C          0.0000000000        0.0000000000        0.0000000000
 N          1.4373628146        0.0000000000        0.0000000000
 C          2.2268625873        1.1027041118        0.0000000000
 C          3.5374040076        0.7053364925       -0.0391648138
 C          3.5378654570       -0.7016140762       -0.0679115094
 C          2.2271175824       -1.1016230866       -0.0448559554
 H         -0.3890848430       -0.7269474542        0.7175627189
 H         -0.3804845736        0.9875856900        0.2675312883
 H         -0.3495527427       -0.2611134727       -0.9940914427
 H          1.8062309185        2.0885327694        0.0317633202
 H          4.3983552393        1.3454374757       -0.0448267158
 H          4.3994376493       -1.3403129332       -0.0994862605
 H          1.8065007577       -2.0878333984       -0.0544800919
  13
    -0.342061 !GC
 C          0.0000000000        0.0000000000        0.0000000000
 N          1.4374290516        0.0000000000        0.0000000000
 C          2.2249577925        1.1043040279        0.0000000000
 C          3.5360327057        0.7097622424       -0.0458180058
 C          3.5393573914       -0.6971171874       -0.0782568582
 C          2.2295348408       -1.0995243818       -0.0511596424
 H         -0.4057480772       -0.8181940369        0.6067391371
 H         -0.3435756012        0.9442908738        0.4085337064
 H         -0.3698173798       -0.1126754732       -1.0184891388
 H          1.8019189607        2.0889509679        0.0363038005
 H          4.3957559257        1.3517228661       -0.0541561663
 H          4.4020126838       -1.3340985402       -0.1148656620
 H          1.8112027374       -2.0869569041       -0.0616959911
  13
    -0.308567 !GC
 C          0.0000000000        0.0000000000        0.0000000000
 N          1.4374724526        0.0000000000        0.0000000000
 C          2.2292859138        1.1009010917        0.0000000000
 C          3.5327091514        0.7051922746        0.1465203640
 C          3.5249286836       -0.6979591330        0.2542900401
 C          2.2251399225       -1.0911385318        0.1691426737
 H         -0.3880648415        0.0527800764       -1.0202416638
 H         -0.3627140473       -0.9135432282        0.4669605848
 H         -0.3688383179        0.8588933648        0.5589403618
 H          1.8164784853        2.0836293003       -0.1165868374
 H          4.3948229007        1.3434563144        0.1669751076
 H          4.3801626341       -1.3351061062        0.3720545487
 H          1.8079138473       -2.0782368073        0.2038692203
  13
    -0.283251 !GC
 C          0.0000000000        0.0000000000        0.0000000000
 N          1.4373826227        0.0000000000        0.0000000000
 C          2.2276746990        1.1021477509        0.0000000000
 C          3.5379521642        0.7041095146       -0.0415466872
 C          3.5375507664       -0.7028590384       -0.0713166886
 C          2.2266965545       -1.1018918118       -0.0471864774
 H         -0.3802702056       -0.2275073298       -0.9977296753
 H         -0.3646406955       -0.7524119836        0.6971394169
 H         -0.3739747547        0.9781336604        0.3029598148
 H          1.8074750568        2.0881789097        0.0333133497
 H          4.3993962542        1.3438244900       -0.0479109786
 H          4.3986130248       -1.3421248742       -0.1037177963
 H          1.8053817413       -2.0881345950       -0.0569019241
  13
    -0.182102 !GC
 C          0.0000000000        0.0000000000        0.0000000000
 N          1.4375057604        0.0000000000        0.0000000000
 C          2.2205488504        1.1078844716        0.0000000000
 C          3.5333577830        0.7184515265       -0.0396385989
 C          3.5424138646       -0.6885030590       -0.0681920020
 C          2.2340971184       -1.0961268673       -0.0450305804
 H         -0.3799603639        0.8551564695        0.5617021596
 H         -0.3474284941        0.0623138738       -1.0262406186
 H         -0.3920808476       -0.9137691375        0.4553310915
 H          1.7927593392        2.0905961600        0.0314848240
 H          4.3905250696        1.3637943678       -0.0451340230
 H          4.4077678451       -1.3220677072       -0.0992280657
 H          1.8204198023       -2.0855754256       -0.0543654843
  13
    -0.156517 !GC
 C          0.0000000000        0.0000000000        0.0000000000
 N          1.4373226940        0.0000000000        0.0000000000
 C          2.2356513957        1.0956545058        0.0000000000
 C          3.5428411351        0.6879386889        0.0462904380
 C          3.5317444618       -0.7188906441        0.0809330863
 C          2.2184640330       -1.1080480381        0.0545384403
 H         -0.3882885240        0.7274526643       -0.7176665698
 H         -0.3816248609       -0.9873402843       -0.2678543126
 H         -0.3488225925        0.2608166491        0.9941175201
 H          1.8242818701        2.0852884067       -0.0367382998
 H          4.4089841558        1.3211754189        0.0513855920
 H          4.3878826053       -1.3645104317        0.1181706289
 H          1.7890533057       -2.0904891266        0.0652097624
  13
    -0.130176 !GC
 C          0.0000000000        0.0000000000        0.0000000000
 N          1.4373958701        0.0000000000        0.0000000000
 C          2.2336629058        1.0972853051        0.0000000000
 C          3.5360482906        0.6959864144        0.1403593163
 C          3.5230754242       -0.7073984020        0.2443096160
 C          2.2205453620       -1.0956279065        0.1637439809
 H         -0.4138492515        0.9353241279        0.3990220383
 H         -0.3588622184       -0.1278660596       -1.0187787440
 H         -0.3465868473       -0.8234770531        0.6153925144
 H          1.8249748578        2.0823390833       -0.1117690632
 H          4.4009312147        1.3306370470        0.1579521315
 H          4.3762180627       -1.3483802398        0.3565358975
 H          1.7981672738       -2.0805449538        0.1968038821
  13
    -0.101833 !GC
 C          0.0000000000        0.0000000000        0.0000000000
 N          1.4374557988        0.0000000000        0.0000000000
 C          2.2256729868        1.1037634413        0.0000000000
 C          3.5362903993        0.7083974266        0.0527687416
 C          3.5383210461       -0.6983124090        0.0925320398
 C          2.2287647295       -1.0995441138        0.0620542544
 H         -0.4058352429        0.8330208711       -0.5860974170
 H         -0.3418872076       -0.9338056369       -0.4324989945
 H         -0.3717363699        0.0867946365        1.0206047871
 H          1.8035122198        2.0885730403       -0.0420077239
 H          4.3965594676        1.3496122663        0.0588747360
 H          4.4003658933       -1.3357365273        0.1352962360
 H          1.8097774230       -2.0866738082        0.0746959230
  13
    -0.087615 !GC
 C          0.0000000000        0.0000000000        0.0000000000
 N          1.4375190078        0.0000000000        0.0000000000
 C          2.2265722569        1.1030613661        0.0000000000
 C          3.5312917996        0.7104707641        0.1422580388
 C          3.5275921303       -0.6928707059        0.2473971645
 C          2.2279824413       -1.0895973515        0.1647793041
 H         -0.4135319545       -0.9507237133        0.3602434001
 H         -0.3416513376        0.7981857813        0.6495317600
 H         -0.3646813585        0.1698202350       -1.0112948303
 H          1.8105375890        2.0847083656       -0.1136484909
 H          4.3918595765        1.3508350888        0.1607436354
 H          4.3848848441       -1.3281013612        0.3609845645
 H          1.8133426838       -2.0777344238        0.1989211021
  13
    -0.078246 !GC
 C          0.0000000000        0.0000000000        0.0000000000
 N          1.4374258975        0.0000000000        0.0000000000
 C          2.2277607961        1.1020010683        0.0000000000
 C          3.5375707461        0.7037125167        0.0505848625
 C          3.5366442336       -0.7030546712        0.0874461320
 C          2.2263334867       -1.1016776040        0.0584658387
 H         -0.3967866678        0.8808566837       -0.5137151986
 H         -0.3802463747       -0.8910153113       -0.5029434904
 H         -0.3425001494        0.0058164580        1.0288095971
 H          1.8085532244        2.0880286625       -0.0401281463
 H          4.3989291092        1.3430435541        0.0572711196
 H          4.3975027802       -1.3423656568        0.1268779789
 H          1.8054250726       -2.0874248070        0.0699698232
  13
    -0.071906 !GC
 C          0.0000000000        0.0000000000        0.0000000000
 N          1.4374092436        0.0000000000        0.0000000000
 C          2.2241441616        1.1048584020        0.0000000000
 C          3.5354876132        0.7109832195       -0.0434367930
 C          3.5396777302       -0.6958778888       -0.0748516688
 C          2.2299548603       -1.0992629559       -0.0488326858
 H         -0.4145521021        0.9447354969        0.3751609366
 H         -0.3594124501       -0.1540752786       -1.0150203195
 H         -0.3453964759       -0.8077661988        0.6365535358
 H          1.8006698729        2.0893045760        0.0347529436
 H          4.3947202226        1.3533263359       -0.0510728725
 H          4.4028439351       -1.3322930795       -0.1106343320
 H          1.8123156958       -2.0866589200       -0.0592756005
  13
    -0.041700 !GC
 C          0.0000000000        0.0000000000        0.0000000000
 N          1.4374922606        0.0000000000        0.0000000000
 C          2.2258575413        1.1036024731        0.0000000000
 C          3.5365780922        0.7078708098        0.0439206090
 C          3.5387606002       -0.6989995222        0.0771104891
 C          2.2287530600       -1.1001797269        0.0519894831
 H         -0.4134451780        0.9415042658       -0.3838770699
 H         -0.3433396290       -0.8142602863       -0.6288956456
 H         -0.3627619028       -0.1441950402        1.0156703819
 H          1.8039533420        2.0886581749       -0.0356212937
 H          4.3968143290        1.3489737952        0.0479226250
 H          4.4009764384       -1.3367858092        0.1115107853
 H          1.8098213844       -2.0870379759        0.0626784063
  13
    -0.033724 !GC
 C          0.0000000000        0.0000000000        0.0000000000
 N          1.4374359907        0.0000000000        0.0000000000
 C          2.2248597368        1.1043183103        0.0000000000
 C          3.5355985086        0.7097238041        0.0551543138
 C          3.5384156563       -0.6969164963        0.0959280742
 C          2.2291850174       -1.0990453614        0.0643432983
 H         -0.4146388238       -0.9350175567       -0.3985873769
 H         -0.3577230948        0.1282563229        1.0188578388
 H         -0.3473166153        0.8233425738       -0.6156587910
 H          1.8023707474        2.0888510889       -0.0435392110
 H          4.3953495830        1.3513428026        0.0619709046
 H          4.4009161478       -1.3337471112        0.1395200610
 H          1.8110270857       -2.0861941493        0.0771100486
  13
    -0.027502 !GC
 C          0.0000000000        0.0000000000        0.0000000000
 N          1.4373691229        0.0000000000        0.0000000000
 C          2.2329521341        1.0978309045        0.0000000000
 C          3.5411996522        0.6934353736        0.0420121366
 C          3.5339993830       -0.7134560525        0.0739938712
 C          2.2213202356       -1.1060773217        0.0503415985
 H         -0.4137624618       -0.9450527480       -0.3755878070
 H         -0.3605516864        0.1536834268        1.0149492384
 H         -0.3446669569        0.8079063832       -0.6362898315
 H          1.8185468098        2.0862399880       -0.0337640022
 H          4.4057151102        1.3288620348        0.0451332973
 H          4.3919645287       -1.3569693704        0.1070277154
 H          1.7947012225       -2.0896701027        0.0603314226
