  13
  -17.1911022800000       0.166832453687724      !
 C          2.0958002897        0.0000064146        0.0123802813
 N          0.6587020123        0.0003592393       -0.0174794476
 C         -0.1318074990        1.1022655350       -0.0050763645
 C         -1.4423801102        0.7033498339        0.0066301511
 C         -1.4419703236       -0.7039325666        0.0067427950
 C         -0.1311993711       -1.1020761890       -0.0050975575
 H          2.4622959776       -0.0226046317        1.0416913868
 H          2.4727294790       -0.8758045659       -0.5132927292
 H          2.4712551078        0.8986109182       -0.4739863182
 H          0.2881912069        2.0888030564       -0.0100403956
 H         -2.3039225825        1.3427346870        0.0116297039
 H         -2.3031696709       -1.3438277535        0.0117111491
 H          0.2895352381       -2.0882926260       -0.0104569384
  13
  -17.1911021700000       0.166813035281579      !
 C          2.0958051384        0.0000253692       -0.0145869627
 N          0.6587141736        0.0003201907        0.0170934482
 C         -0.1318160251        1.1022402077        0.0056628876
 C         -1.4424063041        0.7033692236       -0.0055038484
 C         -1.4419619303       -0.7039114292       -0.0063324483
 C         -0.1311929826       -1.1020862196        0.0062610537
 H          2.4713571930        0.8964465498        0.4756624805
 H          2.4729727295       -0.8777098422        0.5075737013
 H          2.4619521223       -0.0182949997       -1.0443701008
 H          0.2882173735        2.0887710244        0.0099881411
 H         -2.3039644149        1.3427824146       -0.0110938822
 H         -2.3031481699       -1.3438081475       -0.0134019273
 H          0.2895387332       -2.0883127426        0.0108804636
  13
  -17.1911017400000       0.166737148649816      !
 C          2.0958256645       -0.0003702797        0.0123619311
 N          0.6587026248        0.0006381566       -0.0173369475
 C         -0.1319732234        1.1023712898       -0.0051583141
 C         -1.4425007448        0.7033023483        0.0066878386
 C         -1.4418693279       -0.7039753390        0.0067364779
 C         -0.1310507903       -1.1019628158       -0.0051284178
 H          2.4704675286        0.9100654102       -0.4518232337
 H          2.4625633388       -0.0481864198        1.0407398480
 H          2.4734229868       -0.8627353412       -0.5348032899
 H          0.2877866689        2.0890201267       -0.0105011228
 H         -2.3041385232        1.3425856468        0.0115428246
 H         -2.3029821312       -1.3439730986        0.0116283134
 H          0.2899223097       -2.0880800687       -0.0105569305
  13
  -17.1911016500000       0.166721269770748      !
 C          2.0957981884       -0.0004041777       -0.0139773982
 N          0.6587278293        0.0006677821        0.0168011104
 C         -0.1319747356        1.1023889899        0.0052380820
 C         -1.4425076057        0.7032905491       -0.0056347721
 C         -1.4418623468       -0.7039776542       -0.0053229973
 C         -0.1310303654       -1.1019573691        0.0051202395
 H          2.4615694577       -0.0516688353       -1.0425123950
 H          2.4707688643        0.9115770524        0.4468371850
 H          2.4738634731       -0.8608947814        0.5358505864
 H          0.2877501800        2.0890513761        0.0101036741
 H         -2.3041562641        1.3425601810       -0.0102197297
 H         -2.3029568754       -1.3439717029       -0.0094418880
 H          0.2899537036       -2.0880724199        0.0096077067
  13
  -17.1911004100000       0.166502647987077      !
 C          2.0958295863        0.0019894557       -0.0133895420
 N          0.6587185486       -0.0011446459        0.0159753152
 C         -0.1310557281        1.1016058786        0.0049965720
 C         -1.4418646339        0.7036567370       -0.0052473491
 C         -1.4425230580       -0.7036155984       -0.0052040984
 C         -0.1319655738       -1.1027308218        0.0049825653
 H          2.4691575377       -0.9380507933        0.3881453028
 H          2.4622141273        0.1191744610       -1.0362088413
 H          2.4749941025        0.8251222822        0.5907389868
 H          0.2902013291        2.0875871957        0.0095369367
 H         -2.3030007557        1.3436858558       -0.0094300585
 H         -2.3041477338       -1.3428878042       -0.0093069243
 H          0.2875331945       -2.0895166305        0.0097053330
  13
  -17.1910997900000       0.166393444623055      !
 C          2.0958905684        0.0024119244        0.0112978703
 N          0.6587019875       -0.0014613274       -0.0160201447
 C         -0.1309055971        1.1014670613       -0.0047296075
 C         -1.4417608616        0.7037147165        0.0062036238
 C         -1.4426580567       -0.7035575518        0.0062035240
 C         -0.1321541454       -1.1028541321       -0.0047456235
 H          2.4679824377       -0.9489964377       -0.3632481091
 H          2.4752173316        0.8074601756       -0.6169036777
 H          2.4635527179        0.1490279416        1.0298382290
 H          0.2906171186        2.0873254858       -0.0091745814
 H         -2.3027790812        1.3438597874        0.0110472112
 H         -2.3043855164       -1.3427054833        0.0109967242
 H          0.2870804224       -2.0897494070       -0.0094979177
