  12
    -0.403790 !GC
 C          0.0000000000        0.0000000000        0.0000000000
 C          1.4842690735        0.0000000000        0.0000000000
 C          2.3415730351        1.0517457963        0.0000000000
 C          3.7062247531        0.6680115555        0.0044039259
 C          3.8685339963       -0.6754337740        0.0067582489
 S          2.3578902174       -1.5069960647        0.0044675128
 H         -0.3721028200       -1.0208505509       -0.0267900604
 H         -0.3842221519        0.4907905801        0.8930795350
 H         -0.3733108516        0.5400962729       -0.8693359219
 H          2.0175205635        2.0771776829       -0.0026880025
 H          4.5218173432        1.3681829070        0.0065520413
 H          4.7756964247       -1.2456442136        0.0108429107
  12
    -0.239795 !GC
 C          0.0000000000        0.0000000000        0.0000000000
 C          1.4836989308        0.0000000000        0.0000000000
 C          2.3408720943        1.0521092118        0.0000000000
 C          3.7055863959        0.6690460656       -0.0081420848
 C          3.8682891680       -0.6744964128       -0.0149630273
 S          2.3583022612       -1.5062221638       -0.0118807782
 H         -0.3596475677        0.5856644052        0.8389921647
 H         -0.3860279377        0.4295806093       -0.9265173685
 H         -0.3841978430       -1.0167362524        0.0626980060
 H          2.0167128446        2.0774604345        0.0067151010
 H          4.5208082614        1.3696327768       -0.0064998470
 H          4.7753560385       -1.2443521903       -0.0199684745
  12
    -0.217300 !GC
 C          0.0000000000        0.0000000000        0.0000000000
 C          1.4841058151        0.0000000000        0.0000000000
 C          2.3414112865        1.0517584011        0.0000000000
 C          3.7059772099        0.6680566008       -0.0027698305
 C          3.8684045015       -0.6754023949       -0.0039996379
 S          2.3578016292       -1.5069659705       -0.0032810392
 H         -0.3729755182        0.5635765266        0.8544369723
 H         -0.3840997503        0.4658383872       -0.9063129292
 H         -0.3722366200       -1.0196452944        0.0546829420
 H          2.0172948106        2.0770295699        0.0019747798
 H          4.5215509796        1.3683705364       -0.0027502971
 H          4.7753281345       -1.2456768662       -0.0052674670
  12
    -0.204944 !GC
 C          0.0000000000        0.0000000000        0.0000000000
 C          1.4842297098        0.0000000000        0.0000000000
 C          2.3415391849        1.0517484641        0.0000000000
 C          3.7062238290        0.6680443151        0.0020324540
 C          3.8685017318       -0.6754408003        0.0026031578
 S          2.3578791070       -1.5070083927        0.0020588648
 H         -0.3595210610        0.5602408840       -0.8562958701
 H         -0.3848150988       -1.0183177420       -0.0323507720
 H         -0.3853409304        0.4553755990        0.9143074684
 H          2.0174867886        2.0772361050       -0.0014200942
 H          4.5218141890        1.3682589561        0.0041748785
 H          4.7756625030       -1.2456704013        0.0045491368
  12
    -0.155315 !GC
 C          0.0000000000        0.0000000000        0.0000000000
 C          1.4842037197        0.0000000000        0.0000000000
 C          2.3414615086        1.0517567377        0.0000000000
 C          3.7061286065        0.6681149360        0.0031179850
 C          3.8684527885       -0.6753314493        0.0052826373
 S          2.3578715094       -1.5069847781        0.0039574124
 H         -0.3720491439        0.4697383971        0.9068760614
 H         -0.3721833055        0.5297775300       -0.8726653313
 H         -0.3855416061       -1.0207903300       -0.0332851868
 H          2.0173897994        2.0772089108       -0.0024076503
 H          4.5216871570        1.3683508119        0.0049648341
 H          4.7756324327       -1.2455032097        0.0092194945
  12
    -0.139739 !GC
 C          0.0000000000        0.0000000000        0.0000000000
 C          1.4840404613        0.0000000000        0.0000000000
 C          2.3412997596        1.0517693425        0.0000000000
 C          3.7058755615        0.6681644575       -0.0040555057
 C          3.8683186586       -0.6752949826       -0.0054743507
 S          2.3577823362       -1.5069534555       -0.0037899766
 H         -0.3729216516        0.4759312010       -0.9063089952
 H         -0.3720614450       -1.0196850691        0.0488921805
 H         -0.3844408633        0.5557930279        0.8540888378
 H          2.0171651727        2.0770598775        0.0022551581
 H          4.5214131263        1.3685445110       -0.0043369731
 H          4.7752595705       -1.2455293011       -0.0068897937
  12
    -0.128193 !GC
 C          0.0000000000        0.0000000000        0.0000000000
 C          1.4859808896        0.0000000000        0.0000000000
 C          2.3394683039        1.0567870275        0.0000000000
 C          3.7040184599        0.6784427770       -0.0077982557
 C          3.8722565427       -0.6653214684       -0.0119405786
 S          2.3652841340       -1.5004050938       -0.0085165169
 H         -0.3699646794       -0.5808629727       -0.8439376770
 H         -0.3817236616       -0.4472603150        0.9167118564
 H         -0.3804794752        1.0149851787       -0.0742734521
 H          2.0095419559        2.0801068584        0.0048480255
 H          4.5175176668        1.3814181842       -0.0094958349
 H          4.7815999965       -1.2313199216       -0.0176683012
  12
    -0.115959 !GC
 C          0.0000000000        0.0000000000        0.0000000000
 C          1.4865117948        0.0000000000        0.0000000000
 C          2.3401377241        1.0564266565        0.0000000000
 C          3.7046580767        0.6774435128        0.0023709520
 C          3.8724542180       -0.6662523101        0.0056230254
 S          2.3648425294       -1.5011751763        0.0054028326
 H         -0.3698384398       -0.5666212509        0.8536849189
 H         -0.3805197424        1.0162169580        0.0524096897
 H         -0.3816143506       -0.4653818550       -0.9081706202
 H          2.0103308983        2.0798728501       -0.0032943348
 H          4.5185463395        1.3800274218        0.0011872400
 H          4.7818945087       -1.2326308555        0.0068455004
  12
    -0.108107 !GC
 C          0.0000000000        0.0000000000        0.0000000000
 C          1.4837382945        0.0000000000        0.0000000000
 C          2.3409059449        1.0521065429        0.0000000000
 C          3.7056017223        0.6690015732       -0.0057710428
 C          3.8683463142       -0.6745096525       -0.0108081189
 S          2.3583302310       -1.5062231591       -0.0094722519
 H         -0.3722284785        0.4053791877       -0.9371855028
 H         -0.3854335788       -1.0163678775        0.1020864039
 H         -0.3721983957        0.5883667359        0.8340236764
 H          2.0167377363        2.0774092574        0.0054475202
 H          4.5208245816        1.3695464651       -0.0041238852
 H          4.7754255751       -1.2443552593       -0.0136754263
  12
    -0.105275 !GC
 C          0.0000000000        0.0000000000        0.0000000000
 C          1.4861047843        0.0000000000        0.0000000000
 C          2.3395966657        1.0567770949        0.0000000000
 C          3.7042799065        0.6784188996       -0.0029990733
 C          3.8723707298       -0.6653757478       -0.0053406044
 S          2.3653731067       -1.5004579388       -0.0031866294
 H         -0.3565124304       -0.5437243986        0.8679554914
 H         -0.3824396771        1.0197505388        0.0111130025
 H         -0.3935822585       -0.4714595216       -0.9021516068
 H          2.0097249978        2.0803205311        0.0014506501
 H          4.5178058110        1.3812889101       -0.0025686161
 H          4.7819616768       -1.2313370763       -0.0078543659
  12
    -0.095292 !GC
 C          0.0000000000        0.0000000000        0.0000000000
 C          1.4860787942        0.0000000000        0.0000000000
 C          2.3395189137        1.0567851665        0.0000000000
 C          3.7041876343        0.6784865599       -0.0019141029
 C          3.8723289974       -0.6652720644       -0.0026602597
 S          2.3653706847       -1.5004382965       -0.0012895813
 H         -0.3690447609       -0.4879909105       -0.8982679704
 H         -0.3698022055       -0.5119350764        0.8843485433
 H         -0.3937820413        1.0177260113        0.0133603042
 H          2.0096256832        2.0802950048        0.0004623196
 H          4.5176812708        1.3813774397       -0.0017778639
 H          4.7819454782       -1.2311800211       -0.0031836966
  12
    -0.092268 !GC
 C          0.0000000000        0.0000000000        0.0000000000
 C          1.4861700120        0.0000000000        0.0000000000
 C          2.3397079001        1.0567665340        0.0000000000
 C          3.7043807462        0.6783123280       -0.0017143708
 C          3.8724576984       -0.6654817020       -0.0038658784
 S          2.3653939423       -1.5004706811       -0.0026774263
 H         -0.3565674504       -0.4972534790       -0.8952642048
 H         -0.3944872710       -0.5177079329        0.8763614033
 H         -0.3813723231        1.0192390150        0.0425891215
 H          2.0098541207        2.0802905111        0.0011700569
 H          4.5179425022        1.3811166585       -0.0009811707
 H          4.7820323327       -1.2314820630       -0.0062317841
  12
    -0.054915 !GC
 C          0.0000000000        0.0000000000        0.0000000000
 C          1.4866750532        0.0000000000        0.0000000000
 C          2.3402995317        1.0564140413        0.0000000000
 C          3.7048837254        0.6774165589        0.0095416668
 C          3.8725477379       -0.6662558560        0.0163779275
 S          2.3648986223       -1.5011804016        0.0131372013
 H         -0.3689729158       -0.3749009370       -0.9510252444
 H         -0.3806418338       -0.6118166202        0.8131314603
 H         -0.3827084065        1.0133608464        0.1386159110
 H          2.0105770786        2.0800041211       -0.0079612752
 H          4.5187936389        1.3798587204        0.0104968423
 H          4.7822179096       -1.2325596522        0.0229544916
