  12
  -16.9876398200000       0.333361552260377      !
 C          2.2922080935        0.1483101977        0.0000578069
 C          0.8110951780        0.2705617091       -0.0001121345
 C          0.0474690390        1.3939587571        0.0000064049
 C         -1.3436652299        1.1291849877       -0.0000547786
 C         -1.6218254890       -0.1961262990        0.0001170702
 S         -0.1886588618       -1.1524293062       -0.0000328052
 H          2.7443253811        1.1364382643       -0.0038841472
 H          2.6304241711       -0.3932497709        0.8823153529
 H          2.6301480049       -0.4003608441       -0.8778721642
 H          0.4604264802        2.3868011356        0.0000845574
 H         -2.0965815092        1.8965794794       -0.0000640299
 H         -2.5749302100       -0.6852535161        0.0002928155
  12
  -16.9876397400000       0.333333332537048      !
 C          2.2922140279        0.1482769506       -0.0001513348
 C          0.8110908434        0.2705722835        0.0001749848
 C          0.0474614408        1.3939860945        0.0000442385
 C         -1.3436855832        1.1291851912       -0.0000710748
 C         -1.6218363995       -0.1961405883       -0.0000303680
 S         -0.1886423966       -1.1524200565        0.0000536905
 H          2.6301589902       -0.4011919153        0.8772977220
 H          2.6303237387       -0.3925618432       -0.8829245234
 H          2.7443650766        1.1364282951        0.0046584165
 H          0.4604245942        2.3868270194        0.0000108505
 H         -2.0966105611        1.8965632959       -0.0002070487
 H         -2.5749292931       -0.6852920930       -0.0001435913
  12
  -16.9876396600000       0.333305115202575      !
 C          2.2922709448        0.1482960015       -0.0003151930
 C          0.8111184553        0.2705594557        0.0001644437
 C          0.0474643994        1.3939546195        0.0001999458
 C         -1.3436943263        1.1291748799       -0.0001184488
 C         -1.6218603044       -0.1961402815       -0.0002441843
 S         -0.1886725914       -1.1524094052        0.0002318733
 H          2.6306732772       -0.3908709842       -0.8840006488
 H          2.7443903645        1.1364262027        0.0063446381
 H          2.6301338970       -0.4027901851        0.8761138355
 H          0.4604256221        2.3868025175       -0.0001633501
 H         -2.0966200755        1.8965615985       -0.0007741504
 H         -2.5749634534       -0.6852751162       -0.0011617717
