  15
  -23.1066664600000       0.333362727906016      !
 C         -0.6651711849       -2.1761696119       -0.0000039909
 C          0.2171880088       -0.9693588810       -0.0000018830
 C          1.6024910685       -1.0831346234        0.0000049383
 C          2.4186466999        0.0342760640        0.0000036989
 C          1.8601567606        1.3005976719       -0.0000009755
 C          0.4832831116        1.4447651290       -0.0000043979
 C         -0.3160065670        0.3159894886       -0.0000056536
 Cl        -2.0497963355        0.5254318439        0.0000028667
 H         -1.3089347543       -2.1712171932        0.8783273841
 H         -1.3090727053       -2.1711055968       -0.8782319331
 H         -0.0723281074       -3.0855676628       -0.0001051114
 H          2.0426982258       -2.0686287485        0.0000021212
 H          3.4908571757       -0.0839071507        0.0000145644
 H          2.4883038431        2.1770851745       -0.0000219765
 H          0.0300210489        2.4233648622        0.0000125878
  15
  -23.1066663900000       0.333338035430690      !
 C         -0.6652047009       -2.1761373274        0.0001417348
 C          0.2171913773       -0.9693505018        0.0000888300
 C          1.6024970169       -1.0831221641       -0.0000742505
 C          2.4186586335        0.0342865818       -0.0000572755
 C          1.8601667626        1.3006070828        0.0001205267
 C          0.4832870344        1.4447696779        0.0001109722
 C         -0.3160030216        0.3159890193        0.0001087114
 Cl        -2.0497958208        0.5254026614       -0.0001192855
 H         -0.0723607756       -3.0855259146        0.0019413403
 H         -1.3103222640       -2.1701989248        0.8774657418
 H         -1.3077610586       -2.1720976683       -0.8790889324
 H          2.0427029886       -2.0686162763        0.0001302286
 H          3.4908727484       -0.0838914168       -0.0004429999
 H          2.4883113301        2.1770928071       -0.0006870811
 H          0.0300216332        2.4233684275       -0.0003567348
  15
  -23.1066662800000       0.333299236663294      !
 C         -0.6651495552       -2.1761680771        0.0000849505
 C          0.2171859355       -0.9693604144        0.0001544729
 C          1.6024875572       -1.0831538586       -0.0000853110
 C          2.4186445691        0.0342667925       -0.0000341120
 C          1.8601715080        1.3006095836        0.0000203164
 C          0.4832850636        1.4447690527        0.0001480270
 C         -0.3160154417        0.3159876520        0.0002123267
 Cl        -2.0498077077        0.5254333645       -0.0001746966
 H         -1.3048680461       -2.1738912864       -0.8812544069
 H         -0.0722784035       -3.0855578179        0.0056004990
 H         -1.3130687750       -2.1683006575        0.8753285896
 H          2.0426826035       -2.0686581606        0.0005854721
 H          3.4908641244       -0.0839246444       -0.0001059131
 H          2.4883250350        2.1770955210       -0.0003283184
 H          0.0300291433        2.4233801075        0.0003527447
