  8
    -0.000001 !GC
 C          0.0000000000        0.0000000000        0.0000000000
 C          1.5150927395        0.0000000000        0.0000000000
 F          2.0430427873        1.2319828663        0.0000000000
 F          2.0866721976       -0.6624900204       -1.0079492856
 F          1.9559781531       -0.5863525294        1.1350586906
 Cl        -0.5753165930       -1.6930669542        0.0613797099
 H         -0.3611578166        0.5257478310        0.8836999842
 H         -0.3624593730        0.4621293931       -0.9182417667
  8
    -0.000001 !GC
 C          0.0000000000        0.0000000000        0.0000000000
 C          1.5151636446        0.0000000000        0.0000000000
 F          2.0854895400        1.2067891811        0.0000000000
 F          2.0438570065       -0.6762102175       -1.0295201028
 F          1.9563686510       -0.6257307880        1.1138288229
 Cl        -0.5746261794        0.8869712862        1.4439047205
 H         -0.3606188638        0.5105633474       -0.8929779936
 H         -0.3626436946       -1.0269704718        0.0497658301
