  13
    -0.357078 !GC
 C          0.0000000000        0.0000000000        0.0000000000
 C          1.4911408140        0.0000000000        0.0000000000
 C          2.2235497653        1.1932032212        0.0000000000
 N          3.5440784427        1.2105588856        0.0029073453
 C          4.1624561147        0.0330325258        0.0037646145
 C          3.4485017415       -1.1538376964       -0.0015209366
 N          2.1207201593       -1.1694174161       -0.0024770332
 H         -0.3465092474        1.0193739040       -0.1408143263
 H         -0.3807247360       -0.6340854686       -0.7979956388
 H         -0.3748164265       -0.3761662672        0.9518015965
 H          1.7309663952        2.1556573002       -0.0016656686
 H          5.2421593293        0.0580178906        0.0069125619
 H          3.9362516902       -2.1182913827       -0.0052446067
  13
    -0.307669 !GC
 C          0.0000000000        0.0000000000        0.0000000000
 C          1.4911146977        0.0000000000        0.0000000000
 C          2.2234911388        1.1937611027        0.0000000000
 N          3.5436961136        1.2115410555        0.0062457986
 C          4.1625860760        0.0339471715        0.0115861689
 C          3.4489631987       -1.1529369322        0.0063058851
 N          2.1210482859       -1.1689002360        0.0011638183
 H         -0.3625050504       -0.7223174872       -0.7232693233
 H         -0.3612512399       -0.2680504413        0.9933557428
 H         -0.3784998561        0.9987001753       -0.2121449682
 H          1.7299906882        2.1559413004       -0.0055448480
 H          5.2420065369        0.0599821794        0.0183583293
 H          3.9369595673       -2.1173597423        0.0054665905
  13
    -0.206469 !GC
 C          0.0000000000        0.0000000000        0.0000000000
 C          1.4911637762        0.0000000000        0.0000000000
 C          2.2231925065        1.1934439245        0.0000000000
 N          3.5435909470        1.2113281138        0.0017929458
 C          4.1624654022        0.0339639429        0.0023154942
 C          3.4490410888       -1.1530455386       -0.0005158361
 N          2.1211426425       -1.1691094191       -0.0010325308
 H         -0.3536910386       -0.6165862502       -0.8238026036
 H         -0.3794709922       -0.4224299429        0.9282286989
 H         -0.3689959809        1.0141275780       -0.1270485076
 H          1.7300569701        2.1555600404       -0.0015910190
 H          5.2421782573        0.0595624257        0.0038075443
 H          3.9371384752       -2.1172258300       -0.0026748445
  13
    -0.159926 !GC
 C          0.0000000000        0.0000000000        0.0000000000
 C          1.4910911047        0.0000000000        0.0000000000
 C          2.2229637517        1.1934626891        0.0000000000
 N          3.5434446963        1.2115356900        0.0040572650
 C          4.1623257647        0.0342563209        0.0074042299
 C          3.4489498489       -1.1528809027        0.0049881106
 N          2.1211059233       -1.1691036627        0.0017345441
 H         -0.3546370362       -0.4893834680        0.9045472399
 H         -0.3729711162        1.0183385131       -0.0396906434
 H         -0.3743894485       -0.5672739464       -0.8515396871
 H          1.7297534802        2.1555760456       -0.0035630607
 H          5.2420100727        0.0597686051        0.0102890779
 H          3.9372662672       -2.1169149759        0.0045401587
  13
    -0.159843 !GC
 C          0.0000000000        0.0000000000        0.0000000000
 C          1.4910497224        0.0000000000        0.0000000000
 C          2.2230753540        1.1937070519        0.0000000000
 N          3.5433070566        1.2115998461        0.0063802126
 C          4.1625266200        0.0342586031        0.0118048308
 C          3.4492402509       -1.1527677334        0.0089930305
 N          2.1211542435       -1.1689302524        0.0029546480
 H         -0.3746501625       -0.5223390852       -0.8747746131
 H         -0.3710454285       -0.4367467834        0.9222598495
 H         -0.3564200285        1.0304029828       -0.0448358194
 H          1.7301008528        2.1559690298       -0.0060342682
 H          5.2419583163        0.0603483137        0.0167246324
 H          3.9369958127       -2.1171432671        0.0113594312
  13
    -0.125178 !GC
 C          0.0000000000        0.0000000000        0.0000000000
 C          1.4908964311        0.0000000000        0.0000000000
 C          2.2313652709        1.1865153561        0.0000000000
 N          3.5532293688        1.1953376390       -0.0022601071
 C          4.1641925394        0.0154648933       -0.0064166957
 C          3.4414909906       -1.1675508724       -0.0106092127
 N          2.1155317447       -1.1744895763       -0.0067173273
 H         -0.3574439608        0.6375555841        0.7999636695
 H         -0.3807956333        0.3616622504       -0.9560007606
 H         -0.3713372104       -1.0167489526        0.1185682791
 H          1.7478931520        2.1535729356        0.0033828470
 H          5.2438818206        0.0333941774       -0.0064897864
 H          3.9230984252       -2.1352197094       -0.0161281795
  13
    -0.122699 !GC
 C          0.0000000000        0.0000000000        0.0000000000
 C          1.4908725858        0.0000000000        0.0000000000
 C          2.2308360310        1.1862205347        0.0000000000
 N          3.5529637910        1.1953428456       -0.0044521788
 C          4.1639056983        0.0157931486       -0.0105993400
 C          3.4414739263       -1.1674901513       -0.0119246961
 N          2.1155966800       -1.1746999639       -0.0061482840
 H         -0.3495551496        0.5876937996       -0.8448692583
 H         -0.3923316062       -1.0103576650       -0.0598275082
 H         -0.3672113919        0.4867924481        0.9029585920
 H          1.7476698002        2.1531982287        0.0053580498
 H          5.2438299482        0.0332153166       -0.0145639596
 H          3.9234137739       -2.1347692539       -0.0170519981
  13
    -0.101531 !GC
 C          0.0000000000        0.0000000000        0.0000000000
 C          1.4910994317        0.0000000000        0.0000000000
 C          2.2236614712        1.1934475190        0.0000000000
 N          3.5439428476        1.2106218542        0.0052306508
 C          4.1626631301        0.0330312627        0.0081658138
 C          3.4488031991       -1.1537300747        0.0024855455
 N          2.1207747037       -1.1692459526       -0.0012541245
 H         -0.3665522001       -0.3964081367        0.9394105724
 H         -0.3788024597        1.0021886016       -0.1929568796
 H         -0.3568429237       -0.6245326038       -0.8211132071
 H          1.7313096461        2.1560527241       -0.0041367915
 H          5.2421135204        0.0585938369        0.0133500789
 H          3.9359987160       -2.1185310614        0.0015758527
  13
    -0.089879 !GC
 C          0.0000000000        0.0000000000        0.0000000000
 C          1.4908879780        0.0000000000        0.0000000000
 C          2.2306683156        1.1865354589        0.0000000000
 N          3.5527307205        1.1962606205       -0.0034342535
 C          4.1638594267        0.0166970143       -0.0071784119
 C          3.4416612997       -1.1667074079       -0.0081026655
 N          2.1158848688       -1.1743571563       -0.0037262742
 H         -0.3454493537        0.5621586918        0.8650465148
 H         -0.3749534170        0.5008564456       -0.8893094810
 H         -0.3887105121       -1.0134987008        0.0542810893
 H          1.7463376095        2.1531065222        0.0039578345
 H          5.2437709114        0.0345835826       -0.0095519685
 H          3.9243996646       -2.1336151011       -0.0131642314
  13
    -0.081320 !GC
 C          0.0000000000        0.0000000000        0.0000000000
 C          1.4908235073        0.0000000000        0.0000000000
 C          2.2311366728        1.1865354631        0.0000000000
 N          3.5530914218        1.1955415150        0.0000051566
 C          4.1640709572        0.0157472546       -0.0013271160
 C          3.4414201671       -1.1673993873       -0.0051015081
 N          2.1155050971       -1.1744902428       -0.0039406732
 H         -0.3583831040        0.4589646207       -0.9135878309
 H         -0.3742822855       -1.0158537586        0.1064110410
 H         -0.3767417693        0.5608430606        0.8576684253
 H          1.7475810152        2.1535967827        0.0014135416
 H          5.2437332142        0.0335912974       -0.0000088689
 H          3.9232530325       -2.1349267561       -0.0089079675
  13
    -0.073621 !GC
 C          0.0000000000        0.0000000000        0.0000000000
 C          1.4911376599        0.0000000000        0.0000000000
 C          2.2231336994        1.1940017962        0.0000000000
 N          3.5432111101        1.2123083629        0.0051312460
 C          4.1625996565        0.0348765233        0.0101366279
 C          3.4494991600       -1.1521420863        0.0073100404
 N          2.1214661295       -1.1685889432        0.0026071184
 H         -0.3696774890       -0.2832333583        0.9819821149
 H         -0.3599832251        1.0071074753       -0.2133010572
 H         -0.3726784260       -0.6648658929       -0.7730329824
 H          1.7290810158        2.1558436630       -0.0054706305
 H          5.2420347929        0.0615217322        0.0152525673
 H          3.9378378729       -2.1162892955        0.0080351836
  13
    -0.069104 !GC
 C          0.0000000000        0.0000000000        0.0000000000
 C          1.4909193932        0.0000000000        0.0000000000
 C          2.2310102009        1.1867586256        0.0000000000
 N          3.5527431027        1.1961134948       -0.0033741382
 C          4.1642024331        0.0164006978       -0.0078670527
 C          3.4420421065       -1.1667630809       -0.0096030381
 N          2.1159644719       -1.1741881202       -0.0052723834
 H         -0.3646114281        0.3913672906       -0.9449716745
 H         -0.3795381512       -1.0164596940        0.1128915391
 H         -0.3655253677        0.5915350873        0.8336975774
 H          1.7469830989        2.1534832534        0.0034580240
 H          5.2439003492        0.0349473077       -0.0095942957
 H          3.9240072441       -2.1341594193       -0.0135563455
  13
    -0.062130 !GC
 C          0.0000000000        0.0000000000        0.0000000000
 C          1.4908312034        0.0000000000        0.0000000000
 C          2.2309494930        1.1864637232        0.0000000000
 N          3.5528418265        1.1953979424       -0.0021269079
 C          4.1641363609        0.0157751279       -0.0061986270
 C          3.4417900892       -1.1673953408       -0.0079178319
 N          2.1156521813       -1.1745319605       -0.0049190270
 H         -0.3695940882        0.4217829413        0.9283549222
 H         -0.3904310068        0.5214023614       -0.8690909890
 H         -0.3491845242       -1.0325999707       -0.0513968680
 H          1.7480002634        2.1536002482        0.0028902406
 H          5.2438253869        0.0337683807       -0.0081242487
 H          3.9231791674       -2.1350196682       -0.0102261989
