  8
  -23.4972343900000       0.333564891842248      !
 C          0.7017807797       -0.0002549987       -1.1794690341
 C         -0.3688177850       -0.0000199372       -0.1091813816
 Cl        -1.9660440311        0.0014725025       -0.8935681350
 Cl        -0.2498230030       -1.4448374030        0.9238313419
 Cl        -0.2479988907        1.4434861863        0.9255117925
 Cl         2.3157312011        0.0000069397       -0.4173109419
 H          0.6211751517        0.8972171697       -1.7924911151
 H          0.6216365094       -0.8984511568       -1.7915417890
  8
  -23.4972343400000       0.333547243476538      !
 C          1.1672072785        0.6553579927       -0.3031471684
 C         -0.1928197130        0.2479671330        0.2222642868
 Cl        -1.3281620183       -0.0794355484       -1.1091365731
 Cl        -0.0825372993       -1.2091223482        1.2388706609
 Cl        -0.8495029620        1.5752432002        1.2089584289
 Cl         1.8468085603       -0.6602412036       -1.2996850674
 H          1.8522102363        0.8353044629        0.5253047017
 H          1.0774361884        1.5398892068       -0.9335288332
  8
  -23.4972324700000       0.332887864681214      !
 C          1.1661126293       -0.6564255870       -0.3052913604
 C         -0.1932071882       -0.2483022521        0.2214877167
 Cl        -1.3287763824        0.0825647644       -1.1088741947
 Cl        -0.8508523738       -1.5764173071        1.2064058984
 Cl        -0.0810086025        1.2069634343        1.2405509147
 Cl         1.8478499249        0.6610244735       -1.2978709017
 H          1.0750458574       -1.5389976468       -0.9382883647
 H          1.8509364610       -0.8398630216        0.5225099054
