  42
        -73.77090293
 C         -3.1048729872       -0.2381659480       -2.8955621674
 C         -3.8420244038        0.5889317475       -1.8487819429
 C         -2.8832308736        1.1732845136       -0.8030960755
 N         -2.2124978664        0.1310118444       -0.0495218720
 C         -3.0888643673       -0.7820306363        0.6559759098
 C         -2.6143685152       -1.1026742813        2.0748813581
 C         -2.6946683351        0.1188808698        2.9854038659
 C         -0.8736285203        0.0571234470       -0.0148632565
 C         -0.1260850338       -1.1660173742        0.0362638954
 C          1.2639058382       -1.1822043088        0.0784259804
 C          1.9872160034       -0.0148076466       -0.0172790886
 C          1.3263300874        1.1963879870       -0.0741875227
 C         -0.0572715383        1.2403024240       -0.0209044155
 N         -0.5902703760        2.5407514643        0.2549285483
 O         -1.5589618042        2.6256313734        0.9883342477
 O          0.0031112003        3.5087665546       -0.1910782290
 S          3.7814776085       -0.0521168982       -0.0300283868
 O          4.2526398432        1.1072002552        0.7070160697
 O          4.2080335899       -1.3413269292        0.4817717588
 C          4.2550093171        0.1002184642       -1.7542166771
 N         -0.7149813707       -2.4551984924       -0.1229446580
 O         -1.7190166202       -2.5567330805       -0.8087554058
 O         -0.1445176498       -3.4170994992        0.3743264748
 H         -2.3321014855        0.3545076507       -3.3801542895
 H         -2.6433075515       -1.1144439259       -2.4476011339
 H         -3.8002619623       -0.5778605757       -3.6578842861
 H         -4.6124281684       -0.0199441386       -1.3803307479
 H         -4.3337710427        1.4340501864       -2.3320241744
 H         -2.1410846279        1.7595644809       -1.3473031228
 H         -3.4210283860        1.8415780346       -0.1219130792
 H         -3.2293888234       -1.7118907727        0.0890426109
 H         -4.0554947376       -0.2843115099        0.7305036204
 H         -3.2597972407       -1.8891554313        2.4680919762
 H         -1.5948238937       -1.4914643464        2.0795525500
 H         -3.7278829603        0.4327737462        3.1080825380
 H         -2.2908594211       -0.1164249434        3.9662736525
 H         -2.1329689241        0.9552464238        2.5768619224
 H          1.7841110562       -2.1262615761        0.1458464054
 H          1.8910639231        2.1166669441       -0.0772771215
 H          5.3367374490        0.0916417530       -1.7981141920
 H          3.8402360188       -0.7485496133       -2.2803097095
 H          3.8611768143        1.0385318069       -2.1200510108
