  14
  -19.3222470600000       0.500023809384006      !
 C         -1.8539872165        0.0000010480       -0.0054017261
 C         -1.1536176330       -1.1955686363       -0.0012113053
 C          0.2266503426       -1.2004907891        0.0084477458
 C          0.9423028082       -0.0000007901        0.0118349678
 C          0.2266532792        1.2004916585        0.0084381169
 C         -1.1536215422        1.1955675604       -0.0011998997
 N          2.3159439984       -0.0000017869       -0.0511889406
 H         -2.9335042329        0.0000012944       -0.0104824332
 H         -1.6895172842       -2.1339379128       -0.0023350274
 H          0.7655563367       -2.1371632733        0.0118712500
 H          0.7655570179        2.1371639850        0.0119173345
 H         -1.6895161056        2.1339318057       -0.0023621577
 H          2.7768434583       -0.8501353906        0.2268378492
 H          2.7768392203        0.8501637113        0.2267520185
  14
  -19.3222469700000       0.499976190615994      !
 C         -1.8539743521        0.0000035253       -0.0054791733
 C         -1.1536565198       -1.1955778970       -0.0011623718
 C          0.2266413316       -1.2004955475        0.0084213128
 C          0.9423187794       -0.0000022593        0.0118014954
 C          0.2266536507        1.2005097583        0.0085191773
 C         -1.1536283405        1.1955513833       -0.0012592427
 N          2.3159736553        0.0000082745       -0.0512450492
 H         -2.9334663255        0.0000126533       -0.0103614880
 H         -1.6896137902       -2.1339791524       -0.0016260660
 H          0.7655143725       -2.1371297551        0.0121857544
 H          0.7655756736        2.1372498406        0.0121843336
 H         -1.6895378439        2.1339003647       -0.0021387548
 H          2.7768294509        0.8500786931        0.2268039026
 H          2.7768484830       -0.8501161124        0.2267256821
