  22
        -46.01024092
 C          4.9450424449        0.6915518104       -0.0008372443
 C          4.9450462616       -0.6915447798       -0.0007929759
 C          3.7468820969       -1.3885357810       -0.0002012992
 C          2.5483529246       -0.6964647755        0.0003219231
 C          2.5483481115        0.6964585580        0.0002839831
 C          3.7468747124        1.3885388504       -0.0002561353
 O          1.3732240384        1.4282419554        0.0006827683
 C          0.2169379788        0.7001847821        0.0004208022
 C         -0.9834404333        1.3891556471        0.0002222911
 C         -2.1845771273        0.6935457020        0.0000750256
 C         -2.1845822138       -0.6935420008       -0.0000515949
 C         -0.9834418496       -1.3891576070        0.0002482148
 C          0.2169376506       -0.7001893970        0.0005424425
 O          1.3732324894       -1.4282547103        0.0008151011
 Cl        -3.6730759368       -1.5702921363       -0.0003638477
 Cl        -3.6730608201        1.5702968687       -0.0002661558
 H          5.8749133934        1.2360328130       -0.0011636152
 H          5.8749184693       -1.2360211512       -0.0007362014
 H          3.7173488888       -2.4654395503       -0.0001570997
 H          3.7173356257        2.4654536979        0.0000282498
 H         -0.9697714430        2.4657824181        0.0002835239
 H         -0.9697756352       -2.4657842415        0.0004211832
