  12
    -1.049213 !GC
 C          0.0000000000        0.0000000000        0.0000000000
 N          1.4410670393        0.0000000000        0.0000000000
 C          2.0358947970        1.3133258338        0.0000000000
 C          2.1584794456       -1.1151978318       -0.0013753205
 O          1.7268979802       -2.2626717794       -0.0054547760
 H         -0.3434907533       -0.5136876614       -0.8948689970
 H         -0.3880231547        1.0246624483       -0.0075800550
 H         -0.3434505990       -0.5005936672        0.9017509463
 H          1.7161604931        1.8618873110        0.8873641675
 H          1.7244723453        1.8667188047       -0.8877879336
 H          3.1193918649        1.2272971990        0.0096371441
 H          3.2454159017       -0.9263746798       -0.0082117284
  12
    -1.018678 !GC
 C          0.0000000000        0.0000000000        0.0000000000
 N          1.4410105171        0.0000000000        0.0000000000
 C          2.0359021861        1.3133702932        0.0000000000
 C          2.1582238709       -1.1152634705       -0.0031452364
 O          1.7264073052       -2.2626463993       -0.0076237569
 H         -0.3099119301       -0.5239906747        0.8986349965
 H         -0.3879131913       -0.5284645079       -0.8778674910
 H         -0.3765907770        1.0220501923       -0.0144731141
 H          1.7187276351        1.8606914465        0.8890861194
 H          1.7217702710        1.8679803175       -0.8860678799
 H          3.1194413207        1.2275174253        0.0064227015
 H          3.2451921509       -0.9266933914       -0.0106525513
  12
    -0.364012 !GC
 C          0.0000000000        0.0000000000        0.0000000000
 N          1.4410430678        0.0000000000        0.0000000000
 C          2.0360674549        1.3132417457        0.0000000000
 C          2.1582706770       -1.1152718923       -0.0012004484
 O          1.7265510057       -2.2626800800       -0.0049702735
 H         -0.3432372502        1.0317967582        0.0055606269
 H         -0.3547775373       -0.5016918246        0.9046113648
 H         -0.3764841632       -0.5340140916       -0.8715918314
 H          1.7260598137        1.8587853970       -0.8876960287
 H          3.1283873302        1.2291453991       -0.0000008919
 H          1.7247478525        1.8591718376        0.8868839947
 H          3.2452327983       -0.9266884890       -0.0084826985
  12
    -0.360955 !GC
 C          0.0000000000        0.0000000000        0.0000000000
 N          1.4411934573        0.0000000000        0.0000000000
 C          2.0362315828        1.3134020115        0.0000000000
 C          2.1580316974       -1.1154718139        0.0011950078
 O          1.7257526422       -2.2627179418       -0.0012746034
 H         -0.3441462961        1.0311857083        0.0256488255
 H         -0.3546533640       -0.5192695422        0.8942862855
 H         -0.3757670138       -0.5170410461       -0.8817674452
 H          3.1242034418        1.2243723795        0.0056623464
 H          1.7306444310        1.8621951825        0.8977789235
 H          1.7238194292        1.8615976067       -0.8806800541
 H          3.2451881212       -0.9271237271       -0.0053887681
  12
    -0.174159 !GC
 C          0.0000000000        0.0000000000        0.0000000000
 N          1.4463362232        0.0000000000        0.0000000000
 C          2.0795809585        1.2959977480        0.0000000000
 C          2.1283606442       -1.1366651292       -0.0032898751
 O          1.6465666024       -2.2641816418       -0.0016190872
 H         -0.3399506521        0.5314950865       -0.8861308110
 H         -0.3408464114        0.5183037313        0.8934521990
 H         -0.4063851260       -1.0132708634       -0.0075511341
 H          1.7847739207        1.8518621752       -0.8911242508
 H          3.1612068645        1.1813515898        0.0072644192
 H          1.7717805146        1.8579557740        0.8825038635
 H          3.2217355742       -0.9912412679        0.0109053686
  12
    -0.174003 !GC
 C          0.0000000000        0.0000000000        0.0000000000
 N          1.4462911821        0.0000000000        0.0000000000
 C          2.0796194325        1.2959156526        0.0000000000
 C          2.1277158337       -1.1369407238        0.0009819072
 O          1.6455615179       -2.2644715277       -0.0041001139
 H         -0.3065991465        0.5223658377        0.9010221839
 H         -0.3737368318       -1.0235722535        0.0199658443
 H         -0.4056828572        0.5098243552       -0.8758237718
 H          3.1641752785        1.1765820495        0.0056219302
 H          1.7915427642        1.8472363977        0.9032317855
 H          1.7767653297        1.8588740514       -0.8736874737
 H          3.2211819784       -0.9915327319       -0.0198160208
  12
    -0.169865 !GC
 C          0.0000000000        0.0000000000        0.0000000000
 N          1.4463152797        0.0000000000        0.0000000000
 C          2.0794493499        1.2960054776        0.0000000000
 C          2.1279269715       -1.1368730191        0.0008034966
 O          1.6459081715       -2.2644755641       -0.0045862457
 H         -0.3068517545        0.5165158089       -0.9044154632
 H         -0.4066755950        0.5151751109        0.8727200249
 H         -0.3728515053       -1.0234693697       -0.0131398163
 H          1.7820182978        1.8506391613       -0.8962813789
 H          3.1655366491        1.1775242700       -0.0172504917
 H          1.7868673386        1.8537190017        0.8804891436
 H          3.2213814139       -0.9912187569       -0.0195578355
  12
    -0.166827 !GC
 C          0.0000000000        0.0000000000        0.0000000000
 N          1.4463183077        0.0000000000        0.0000000000
 C          2.0794192458        1.2960191356        0.0000000000
 C          2.1283885291       -1.1366139418        0.0006997953
 O          1.6465492533       -2.2641647610       -0.0021417145
 H         -0.3405403034        0.5194215753        0.8933346649
 H         -0.4065327987       -1.0136785324       -0.0050971585
 H         -0.3400422149        0.5285787360       -0.8874910796
 H          3.1676844542        1.1743197433        0.0032785166
 H          1.7878298088        1.8519149788        0.8883485456
 H          1.7914061957        1.8497553094       -0.8895743540
 H          3.2220004873       -0.9908392028       -0.0090811730
  12
    -0.165777 !GC
 C          0.0000000000        0.0000000000        0.0000000000
 N          1.4461113959        0.0000000000        0.0000000000
 C          2.0792591055        1.2959017856        0.0000000000
 C          2.1283760641       -1.1364836808       -0.0035445955
 O          1.6468584667       -2.2641196819       -0.0079875143
 H         -0.3060017840        0.5021633438       -0.9129733523
 H         -0.4065621277        0.5292591211        0.8648681606
 H         -0.3739446703       -1.0238500545        0.0032039765
 H          1.7793571271        1.8534828861       -0.8879352002
 H          3.1608126243        1.1814004887        0.0022089798
 H          1.7758614742        1.8555925676        0.8851286820
 H          3.2218177455       -0.9907102668       -0.0148457097
  12
    -0.120871 !GC
 C          0.0000000000        0.0000000000        0.0000000000
 N          1.4461679182        0.0000000000        0.0000000000
 C          2.0792504351        1.2958592146        0.0000000000
 C          2.1286336225       -1.1364248536       -0.0017409933
 O          1.6473467363       -2.2641617807       -0.0058298588
 H         -0.3396295577        0.5368810233        0.8833080774
 H         -0.4066724338       -1.0138788236        0.0148858381
 H         -0.3407581467        0.5113097826       -0.8975785933
 H          1.7819776307        1.8522377602       -0.8895331643
 H          3.1608012748        1.1814167089        0.0056408116
 H          1.7732173108        1.8565918876        0.8835552729
 H          3.2220569712       -0.9904017132       -0.0123069251
  12
    -0.113905 !GC
 C          0.0000000000        0.0000000000        0.0000000000
 N          1.4462617855        0.0000000000        0.0000000000
 C          2.0794279184        1.2960617072        0.0000000000
 C          2.1281309556       -1.1366765729       -0.0011039746
 O          1.6460595524       -2.2641261233       -0.0042992877
 H         -0.3069199920        0.5197135930       -0.9027812807
 H         -0.4064225185        0.5119613518        0.8748748542
 H         -0.3732270344       -1.0237194859       -0.0166181546
 H          3.1677143371        1.1742218298       -0.0000490870
 H          1.7905242885        1.8506349966        0.8900467408
 H          1.7890413401        1.8512016049       -0.8879315574
 H          3.2217620883       -0.9911543821       -0.0116201756
  12
    -0.111902 !GC
 C          0.0000000000        0.0000000000        0.0000000000
 N          1.4463099807        0.0000000000        0.0000000000
 C          2.0795609139        1.2960213996        0.0000000000
 C          2.1282258251       -1.1366878657       -0.0004394748
 O          1.6462618055       -2.2641287897        0.0030099279
 H         -0.3068302007        0.5108747465        0.9076938864
 H         -0.3738619313       -1.0238813299        0.0069660726
 H         -0.4060542888        0.5200873716       -0.8697601977
 H          1.7803887303        1.8536187878       -0.8887405246
 H          3.1612570828        1.1810461334        0.0020388148
 H          1.7760043353        1.8560681930        0.8854082383
 H          3.2215942144       -0.9913017603        0.0104341270
  12
    -0.107818 !GC
 C          0.0000000000        0.0000000000        0.0000000000
 N          1.4461598436        0.0000000000        0.0000000000
 C          2.0789524289        1.2960679300        0.0000000000
 C          2.1286491577       -1.1363511094       -0.0018102379
 O          1.6474094071       -2.2640660190       -0.0055491992
 H         -0.3061230774        0.5023898700       -0.9126039091
 H         -0.4065138730        0.5286775891        0.8652795681
 H         -0.3739224579       -1.0238895794        0.0025398599
 H          3.1594053955        1.1810536526        0.0032230077
 H          1.7747173526        1.8568139660        0.8858041742
 H          1.7792464102        1.8537371052       -0.8876928511
 H          3.2220489861       -0.9903074367       -0.0126778770
  12
    -0.091328 !GC
 C          0.0000000000        0.0000000000        0.0000000000
 N          1.4461648902        0.0000000000        0.0000000000
 C          2.0792805353        1.2958455570        0.0000000000
 C          2.1281721357       -1.1366843124       -0.0016378660
 O          1.6467030659       -2.2644690871       -0.0082748000
 H         -0.3059336991        0.4989334784       -0.9145453412
 H         -0.4068152893        0.5324307304        0.8626497857
 H         -0.3735689023       -1.0235328968        0.0066768247
 H          1.7766301000        1.8542801703        0.8865727700
 H          1.7759932366        1.8566149815       -0.8872132703
 H          3.1593499331        1.1811378317       -0.0012766617
 H          3.2214281800       -0.9907649617       -0.0227825402
  12
    -0.089432 !GC
 C          0.0000000000        0.0000000000        0.0000000000
 N          1.4462880279        0.0000000000        0.0000000000
 C          2.0794479646        1.2960380551        0.0000000000
 C          2.1282657730       -1.1366521742       -0.0039543339
 O          1.6463589288       -2.2641645326       -0.0089279211
 H         -0.3400437335       -1.0333929601       -0.0046034862
 H         -0.3736432832        0.5108626466       -0.8871345275
 H         -0.3735602205        0.5044538987        0.8908563520
 H          3.1676422319        1.1746398383        0.0052218309
 H          1.7866637467        1.8528075850        0.8873027578
 H          1.7933299797        1.8489300960       -0.8904940937
 H          3.2219572109       -0.9910080286       -0.0111483401
  12
    -0.087553 !GC
 C          0.0000000000        0.0000000000        0.0000000000
 N          1.4462992567        0.0000000000        0.0000000000
 C          2.0799174363        1.2957069298        0.0000000000
 C          2.1277002975       -1.1370143832        0.0010513687
 O          1.6455005366       -2.2645676153       -0.0043815589
 H         -0.3400983877       -1.0333906428        0.0040999329
 H         -0.3738953732        0.5035905420       -0.8913295723
 H         -0.3727672753        0.5115471076        0.8865388369
 H          1.7815258618        1.8509380899       -0.8954496710
 H          3.1659630130        1.1769179890       -0.0189989264
 H          1.7887872958        1.8529069358        0.8812912718
 H          3.2211923741       -0.9916255476       -0.0194452028
  12
    -0.086019 !GC
 C          0.0000000000        0.0000000000        0.0000000000
 N          1.4463634750        0.0000000000        0.0000000000
 C          2.0795823418        1.2959651721        0.0000000000
 C          2.1280218392       -1.1368832076        0.0014681291
 O          1.6460893110       -2.2644810256        0.0027226939
 H         -0.3067619741        0.5139121903        0.9057787463
 H         -0.3741214712       -1.0236262900        0.0108655576
 H         -0.4056690492        0.5169852988       -0.8712722047
 H          1.7761753735        1.8551422181        0.8864168697
 H          1.7758819007        1.8565769986       -0.8874073784
 H          3.1601092140        1.1812653434       -0.0011522579
 H          3.2213881641       -0.9912301151        0.0025023038
  12
    -0.085912 !GC
 C          0.0000000000        0.0000000000        0.0000000000
 N          1.4463478305        0.0000000000        0.0000000000
 C          2.0796105170        1.2958731274        0.0000000000
 C          2.1279732865       -1.1368750235        0.0027859787
 O          1.6460557473       -2.2645096878       -0.0019415457
 H         -0.3402129561       -1.0331735657        0.0037258797
 H         -0.3738457942        0.5042374484       -0.8910166733
 H         -0.3727448404        0.5109904553        0.8869030129
 H          3.1641283117        1.1766876540        0.0089341138
 H          1.7888080854        1.8485365532        0.9015403177
 H          1.7790884161        1.8574479622       -0.8753760215
 H          3.2214283724       -0.9912244274       -0.0172777182
  12
    -0.084008 !GC
 C          0.0000000000        0.0000000000        0.0000000000
 N          1.4461376384        0.0000000000        0.0000000000
 C          2.0792791503        1.2958781340        0.0000000000
 C          2.1285108784       -1.1364531253       -0.0063944245
 O          1.6471589314       -2.2641503371       -0.0126164473
 H         -0.3391329535       -1.0335903141        0.0155299304
 H         -0.3737734817        0.4934245399       -0.8972942175
 H         -0.3742778752        0.5216064064        0.8809236669
 H          1.7837387579        1.8517280177       -0.8903224250
 H          3.1607614888        1.1817062494        0.0074328844
 H          1.7716389563        1.8574794190        0.8822259348
 H          3.2220155908       -0.9905604821       -0.0143731035
  12
    -0.083185 !GC
 C          0.0000000000        0.0000000000        0.0000000000
 N          1.4463102331        0.0000000000        0.0000000000
 C          2.0791211985        1.2962278565        0.0000000000
 C          2.1284040869       -1.1365403552        0.0006303811
 O          1.6466115339       -2.2640686116       -0.0018611773
 H         -0.3070410954        0.5199327411       -0.9024074524
 H         -0.4063742803        0.5113720002        0.8752746090
 H         -0.3732048058       -1.0237461299       -0.0172829112
 H          1.7764561505        1.8552854568        0.8867779222
 H          1.7762244584        1.8558178047       -0.8871778839
 H          3.1598124454        1.1818007966       -0.0005704475
 H          3.2219928174       -0.9907456164       -0.0094524384
  12
    -0.076292 !GC
 C          0.0000000000        0.0000000000        0.0000000000
 N          1.4464929210        0.0000000000        0.0000000000
 C          2.0798912217        1.2960488065        0.0000000000
 C          2.1280275837       -1.1368736655        0.0039845772
 O          1.6455969841       -2.2641394067        0.0093415532
 H         -0.3411039584        0.5444171839       -0.8778312002
 H         -0.3406596174        0.5039252716        0.9016410111
 H         -0.4052299277       -1.0131827690       -0.0230504899
 H          1.7778640314        1.8552980127        0.8873021748
 H          1.7755011138        1.8563561475       -0.8864751871
 H          3.1609876527        1.1811836966       -0.0020532375
 H          3.2215498805       -0.9916566537        0.0159472357
  12
    -0.012272 !GC
 C          0.0000000000        0.0000000000        0.0000000000
 N          1.4409948725        0.0000000000        0.0000000000
 C          2.0359330521        1.3132796945        0.0000000000
 C          2.1581752169       -1.1152617944       -0.0018524235
 O          1.7263811965       -2.2626541854       -0.0122219036
 H         -0.3433307227       -0.5220430559       -0.8901199089
 H         -0.3876375673        1.0246427778       -0.0166890110
 H         -0.3434469396       -0.4931709433        0.9061686656
 H          3.1234353903        1.2241432906        0.0047039969
 H          1.7304792160        1.8623676171        0.8974099629
 H          1.7234912052        1.8612136079       -0.8802739669
 H          3.2450677580       -0.9267174498       -0.0305822235
  12
    -0.008931 !GC
 C          0.0000000000        0.0000000000        0.0000000000
 N          1.4410589647        0.0000000000        0.0000000000
 C          2.0355909362        1.3135259577        0.0000000000
 C          2.1584927146       -1.1151234069       -0.0014432906
 O          1.7269572420       -2.2625732310       -0.0051780179
 H         -0.3100323016       -0.5242066937        0.8982601765
 H         -0.3878638491       -0.5278731133       -0.8782777621
 H         -0.3765686907        1.0220970800       -0.0138105789
 H          1.7265517943        1.8585068399       -0.8885214796
 H          3.1279134793        1.2297526598        0.0017509563
 H          1.7227979252        1.8599287157        0.8860778302
 H          3.2454058514       -0.9262803353       -0.0085800410
  12
    -0.000745 !GC
 C          0.0000000000        0.0000000000        0.0000000000
 N          1.4410604787        0.0000000000        0.0000000000
 C          2.0361348270        1.3132570602        0.0000000000
 C          2.1582042271       -1.1152898993       -0.0034596144
 O          1.7263218276       -2.2626554328       -0.0091877920
 H         -0.3432618081       -0.5162819697       -0.8933540269
 H         -0.3883701087        1.0243625955       -0.0101937070
 H         -0.3435293323       -0.4988318381        0.9029462563
 H          1.7297640408        1.8572534336       -0.8899840662
 H          3.1282936538        1.2288629480        0.0046790145
 H          1.7214212769        1.8610138803        0.8846392194
 H          3.2451958246       -0.9268458346       -0.0120813593
  12
    -0.000475 !GC
 C          0.0000000000        0.0000000000        0.0000000000
 N          1.4410640113        0.0000000000        0.0000000000
 C          2.0359252704        1.3133131530        0.0000000000
 C          2.1580260307       -1.1154713619       -0.0012740652
 O          1.7262655356       -2.2630015677       -0.0078745690
 H         -0.3098431783       -0.5208064137        0.9002845882
 H         -0.3881716389       -0.5316894898       -0.8756551360
 H         -0.3762143118        1.0216958441       -0.0179364933
 H          3.1234806869        1.2238826442        0.0071244879
 H          1.7295761898        1.8630885388        0.8977987492
 H          1.7243471804        1.8608741168       -0.8806506986
 H          3.2448316700       -0.9267391947       -0.0187315584
  12
    -0.000135 !GC
 C          0.0000000000        0.0000000000        0.0000000000
 N          1.4410367595        0.0000000000        0.0000000000
 C          2.0359229218        1.3133464716        0.0000000000
 C          2.1583581032       -1.1152306262       -0.0059418406
 O          1.7267097677       -2.2626671272       -0.0122588609
 H         -0.3429945226        1.0318131413        0.0103251083
 H         -0.3548410015       -0.5048756179        0.9024869233
 H         -0.3769235308       -0.5304074496       -0.8736607391
 H          1.7148856423        1.8628123644        0.8862148966
 H          1.7261208982        1.8662922035       -0.8885277613
 H          3.1192291423        1.2274335820        0.0118852392
 H          3.2453761243       -0.9265538360       -0.0100084173
