  13
        -28.04011641
 C          2.8445365038       -0.0223690549       -0.3877166210
 C          1.4773888655       -0.1084875553        0.1932572571
 O          1.0341076891       -1.0599332299        0.7961783727
 C          0.6080842729        1.1264481983       -0.0476404449
 O         -0.7033571782        0.9251180462        0.4569857250
 N         -1.4385952182       -0.0382376504       -0.1615644258
 O         -0.9953463167       -0.5139037459       -1.1608632332
 O         -2.4752915174       -0.2739268919        0.3726992910
 H          2.7682382465       -0.2300416459       -1.4541374278
 H          3.2594728420        0.9724820068       -0.2652878473
 H          3.4889143533       -0.7712070256        0.0627180066
 H          0.5836912213        1.3649298595       -1.1153109145
 H          0.9849193988        1.9771068425        0.5209494063
  13
        -28.03999923
 C          2.9025784839        0.0378483782        0.3086646241
 C          1.4918718574       -0.1211005972       -0.1370223829
 O          1.0283239246       -1.1159883737       -0.6474371488
 C          0.6095637350        1.1082660646        0.0895462327
 O         -0.6755767031        0.9057298983       -0.4774736082
 N         -1.4567594902       -0.0332038994        0.1237333517
 O         -1.0914452366       -0.4683520886        1.1715184479
 O         -2.4537956112       -0.2859612676       -0.4746368953
 H          2.9361879077        0.4190558447        1.3248662477
 H          3.4215122886       -0.9137100385        0.2445618005
 H          3.3972955897        0.7607761902       -0.3362542992
 H          1.0048725094        1.9789783537       -0.4329253718
 H          0.5309784605        1.3131265380        1.1622186060
  13
        -28.03961392
 C          2.8959142460        0.0132471000       -0.2864934971
 C          1.4853392880       -0.1100555977        0.1746594469
 O          1.0205574614       -1.0808508710        0.7299661594
 C          0.6101049761        1.1101209957       -0.1029385344
 O         -0.6913468683        0.9276328804        0.4328153511
 N         -1.4515528092       -0.0377411339       -0.1529546058
 O         -1.0515971666       -0.5158041616       -1.1689347800
 O         -2.4669196892       -0.2683364387        0.4231171034
 H          3.5537777946       -0.0839856920        0.5749418708
 H          3.1230348354       -0.8205585232       -0.9476124558
 H          3.0771533213        0.9543679335       -0.7911658656
 H          0.5667348195        1.2897626181       -1.1824583113
 H          0.9980030852        1.9891606326        0.4124443312
  13
        -28.03650376
 C          1.6849864405        0.2735199061       -1.0412488523
 C          1.6070617283       -0.1951834074        0.3720723274
 O          2.4686008142       -0.8370430926        0.9273535053
 C          0.3472088426        0.1903797543        1.1463550860
 O         -0.6385764705        0.8589127064        0.3817197302
 N         -1.4845950198        0.0857607537       -0.3659494024
 O         -1.3290738787       -1.0941866165       -0.3311110763
 O         -2.2887345933        0.7129502716       -0.9755770633
 H          1.0515503409       -0.3662235175       -1.6563169329
 H          1.3259224916        1.2961993202       -1.1256218661
 H          2.7058530932        0.1906657054       -1.4016129159
 H          0.6242017146        0.8996131472        1.9298533997
 H         -0.0647265436       -0.7097128647        1.6150882370
  13
        -28.03565895
 C          1.9846347432        0.8811902862        1.1199224042
 C          1.8860194896       -0.2445787856        0.1570614218
 O          2.8159101501       -0.9238933046       -0.2140446810
 C          0.4894674545       -0.5376405179       -0.3828713007
 O         -0.4534815891        0.3801768651        0.1485169218
 N         -1.7614638502        0.1764358646       -0.1838253303
 O         -2.0099284275       -0.7473527874       -0.8923270782
 O         -2.5052606348        0.9715044227        0.2919306550
 H          1.6145897424        1.7892475774        0.6494199118
 H          1.3401900125        0.6821779690        1.9732115719
 H          3.0125925958        1.0115965099        1.4431028266
 H          0.2158247642       -1.5656686333       -0.1182111582
 H          0.5105676161       -0.4759516609       -1.4769135666
  13
        -28.03563346
 C          2.1212629149        1.0856669934       -0.1861105537
 C          1.8368786786       -0.2747824603        0.3386154531
 O          2.6784639967       -1.0889274004        0.6435621138
 C          0.3629355502       -0.6365433286        0.4961328972
 O         -0.4740876934        0.4614476847        0.1705504716
 N         -1.7178466006        0.1903642463       -0.3292996844
 O         -2.0294254601       -0.9510441625       -0.4557249326
 O         -2.3459374622        1.1657435262       -0.5840083664
 H          3.1925970702        1.2534812772       -0.2336748779
 H          1.6813911277        1.1924510761       -1.1751638441
 H          1.6457071033        1.8235585938        0.4560015056
 H          0.1854419194       -0.9471421011        1.5314036091
 H          0.1370755891       -1.4929770997       -0.1503836513
  13
        -28.03529975
 C          1.9542313682        0.3895680796       -0.9932160699
 C          1.5759574725       -0.2201042149        0.3123472971
 O          2.1552771213       -1.1472846157        0.8281347219
 C          0.4172741896        0.4592807482        1.0513967377
 O         -0.5899978184        0.9684102986        0.1943856574
 N         -1.4895601173        0.0641422198       -0.3031545597
 O         -1.3653925472       -1.0733398788        0.0245470372
 O         -2.3005253258        0.5489720934       -1.0245120690
 H          1.0908061211        0.7614604077       -1.5363356953
 H          2.6001752519        1.2408633502       -0.7791208923
 H          2.5140618444       -0.3220698548       -1.5926736309
 H          0.8042336436        1.3402258396        1.5688585127
 H         -0.0040460300       -0.2412006800        1.7787330777
  13
        -28.03529906
 C          1.6544396407       -0.4175023522        1.4059433801
 C          1.5992899790       -0.1004660899       -0.0494083463
 O          2.3215289098       -0.5945537604       -0.8834238873
 C          0.5964690563        0.9852691916       -0.4559429919
 O         -0.6080920217        0.9574431165        0.2902455929
 N         -1.5040756971       -0.0264050021       -0.0317242061
 O         -1.2067498229       -0.7745062698       -0.9084750874
 O         -2.4913174924       -0.0056567901        0.6298506042
 H          2.4460616430        0.1935395096        1.8396044601
 H          0.7259931594       -0.1804392709        1.9154685864
 H          1.9272910801       -1.4589207698        1.5523745675
 H          0.3951682054        0.9052975753       -1.5284326188
 H          1.0300045951        1.9625828236       -0.2312826333
  13
        -28.03362373
 C          3.0965562724        0.2329118825       -0.3067688176
 C          1.8213136205       -0.1298652076        0.3797581504
 O          1.7425898398       -0.5150189596        1.5203844913
 C          0.5891966608        0.0473200672       -0.5039453588
 O         -0.5752427716       -0.2147372280        0.2728487327
 N         -1.7729562973        0.1021915049       -0.2904139263
 O         -1.7582110941        0.5660986941       -1.3876330881
 O         -2.7106586394       -0.1294553591        0.4022619058
 H          3.9381362404       -0.1883076984        0.2348289804
 H          3.0976166265       -0.1002014951       -1.3391089482
 H          3.1928221542        1.3171902491       -0.3012023358
 H          0.6378254335       -0.6544120036       -1.3436955735
 H          0.5546564636        1.0665397557       -0.9032900249
