  13
        -28.04011641
 C          2.8445365038       -0.0223690549       -0.3877166210
 C          1.4773888655       -0.1084875553        0.1932572571
 O          1.0341076891       -1.0599332299        0.7961783727
 C          0.6080842729        1.1264481983       -0.0476404449
 O         -0.7033571782        0.9251180462        0.4569857250
 N         -1.4385952182       -0.0382376504       -0.1615644258
 O         -0.9953463167       -0.5139037459       -1.1608632332
 O         -2.4752915174       -0.2739268919        0.3726992910
 H          2.7682382465       -0.2300416459       -1.4541374278
 H          3.2594728420        0.9724820068       -0.2652878473
 H          3.4889143533       -0.7712070256        0.0627180066
 H          0.5836912213        1.3649298595       -1.1153109145
 H          0.9849193988        1.9771068425        0.5209494063
