  13
  -28.0401164100000       0.107838965106916      !
 C          2.8445365038       -0.0223690549       -0.3877166210
 C          1.4773888655       -0.1084875553        0.1932572571
 O          1.0341076891       -1.0599332299        0.7961783727
 C          0.6080842729        1.1264481983       -0.0476404449
 O         -0.7033571782        0.9251180462        0.4569857250
 N         -1.4385952182       -0.0382376504       -0.1615644258
 O         -0.9953463167       -0.5139037459       -1.1608632332
 O         -2.4752915174       -0.2739268919        0.3726992910
 H          2.7682382465       -0.2300416459       -1.4541374278
 H          3.2594728420        0.9724820068       -0.2652878473
 H          3.4889143533       -0.7712070256        0.0627180066
 H          0.5836912213        1.3649298595       -1.1153109145
 H          0.9849193988        1.9771068425        0.5209494063
  13
  -28.0400930600000       0.105207038189690      !
 C          2.8425593319       -0.0294334090        0.4167438740
 C          1.4797439337       -0.1049141449       -0.1756625071
 O          1.0410127863       -1.0460304828       -0.7978044659
 C          0.6075712240        1.1251827773        0.0799459035
 O         -0.6965082970        0.9341488169       -0.4473514070
 N         -1.4404876231       -0.0413150953        0.1416328124
 O         -1.0150993950       -0.5308716069        1.1419694904
 O         -2.4664293676       -0.2708235425       -0.4154746220
 H          2.7583819366       -0.2534910559        1.4792731742
 H          3.4891750168       -0.7722560616       -0.0405551744
 H          3.2599210403        0.9664800378        0.3126043695
 H          0.9920415588        1.9882031096       -0.4642951127
 H          0.5681783185        1.3398210712        1.1522876513
  13
  -28.0400918100000       0.105067968255477      !
 C          2.8436795336       -0.0280212580        0.4174066561
 C          1.4811039373       -0.1047008724       -0.1754242577
 O          1.0442563336       -1.0453544703       -0.7996626970
 C          0.6072471680        1.1236298042        0.0825448995
 O         -0.6962109240        0.9333723233       -0.4464801516
 N         -1.4419299130       -0.0413979560        0.1412067596
 O         -1.0156443420       -0.5355277941        1.1388944348
 O         -2.4698238933       -0.2660471414       -0.4143472925
 H          3.2574760456        0.9699595486        0.3196423312
 H          2.7603921258       -0.2594550322        1.4783864110
 H          3.4927790765       -0.7656586920       -0.0446325906
 H          0.9915366759        1.9885710978       -0.4587129498
 H          0.5661899665        1.3353150876        1.1554291374
  13
  -28.0400915100000       0.105034618834686      !
 C          2.8432814604       -0.0283603230        0.4181086166
 C          1.4808769831       -0.1047524391       -0.1752235397
 O          1.0445821605       -1.0444582421       -0.8014487607
 C          0.6071877416        1.1237118409        0.0830597248
 O         -0.6964044894        0.9337601988       -0.4457896888
 N         -1.4407782056       -0.0432253179        0.1399700124
 O         -1.0152357283       -0.5364741457        1.1384920256
 O         -2.4707832765       -0.2645140261       -0.4130590409
 H          3.4927076366       -0.7660164975       -0.0437518806
 H          3.2571717812        0.9697198671        0.3206788653
 H          2.7593889695       -0.2597470231        1.4791351560
 H          0.9913759252        1.9887728012       -0.4582452778
 H          0.5665241990        1.3353768332        1.1559201918
  13
  -28.0400883400000       0.104682872845524      !
 C          2.8445758270       -0.0227287445       -0.3881149776
 C          1.4779009832       -0.1084008732        0.1936196200
 O          1.0354628038       -1.0596273069        0.7975131915
 C          0.6079285005        1.1259730913       -0.0480918532
 O         -0.7032927434        0.9246147637        0.4573070804
 N         -1.4392596705       -0.0379241053       -0.1618716089
 O         -0.9959323168       -0.5128049674       -1.1614896563
 O         -2.4757373615       -0.2742914591        0.3725075967
 H          3.4908708015       -0.7662499553        0.0684878068
 H          2.7683091850       -0.2401421354       -1.4526920270
 H          3.2564880174        0.9744200549       -0.2741263990
 H          0.5829839134        1.3643707895       -1.1158302359
 H          0.9849485954        1.9769071289        0.5198659668
  13
  -28.0400875800000       0.104598717784322      !
 C          2.8490782792       -0.0201429232       -0.3797067350
 C          1.4786583315       -0.1080464906        0.1928829946
 O          1.0327962046       -1.0612518116        0.7910711302
 C          0.6081645974        1.1251673850       -0.0527252091
 O         -0.7021914969        0.9251127828        0.4551985970
 N         -1.4391068538       -0.0394602973       -0.1598707635
 O         -1.0004084916       -0.5129210015       -1.1621733908
 O         -2.4749585218       -0.2736146990        0.3767116798
 H          3.2594372754        0.9770946649       -0.2612832898
 H          3.4930156036       -0.7638785172        0.0798270361
 H          2.7805620506       -0.2361131065       -1.4451021948
 H          0.5813133354        1.3575110244       -1.1218476625
 H          0.9851954474        1.9795848777        0.5099486039
  13
  -28.0399992300000       9.526283723365288E-002 !
 C          2.9025784839        0.0378483782        0.3086646241
 C          1.4918718574       -0.1211005972       -0.1370223829
 O          1.0283239246       -1.1159883737       -0.6474371488
 C          0.6095637350        1.1082660646        0.0895462327
 O         -0.6755767031        0.9057298983       -0.4774736082
 N         -1.4567594902       -0.0332038994        0.1237333517
 O         -1.0914452366       -0.4683520886        1.1715184479
 O         -2.4537956112       -0.2859612676       -0.4746368953
 H          2.9361879077        0.4190558447        1.3248662477
 H          3.4215122886       -0.9137100385        0.2445618005
 H          3.3972955897        0.7607761902       -0.3362542992
 H          1.0048725094        1.9789783537       -0.4329253718
 H          0.5309784605        1.3131265380        1.1622186060
  13
  -28.0399906800000       9.440482773808287E-002 !
 C          2.9139383609        0.0519819402        0.2843453833
 C          1.4948479037       -0.1247484673       -0.1265147501
 O          1.0284798481       -1.1307801558       -0.6120574521
 C          0.6101611106        1.1042590762        0.0906324426
 O         -0.6704535415        0.8983730482       -0.4851640644
 N         -1.4601394655       -0.0321002330        0.1186850976
 O         -1.1108602492       -0.4504694831        1.1786216589
 O         -2.4505100072       -0.2903875922       -0.4883171197
 H          3.4066420233        0.6986984086       -0.4393365601
 H          2.9743123378        0.5300713870        1.2568871907
 H          3.4190192284       -0.9090868342        0.2980605607
 H          1.0084361649        1.9749586219       -0.4293443370
 H          0.5236905419        1.3090242104        1.1628677974
  13
  -28.0399839200000       9.373192216446986E-002 !
 C          2.9102320463        0.0272301864       -0.2486737328
 C          1.4894709136       -0.1145984598        0.1699458195
 O          1.0141418356       -1.0887101541        0.7087302373
 C          0.6118999402        1.1034238164       -0.1262111583
 O         -0.6833825806        0.9244443650        0.4255430108
 N         -1.4546327179       -0.0388765175       -0.1496729906
 O         -1.0726377442       -0.5153023310       -1.1732395911
 O         -2.4608342680       -0.2683505260        0.4426440864
 H          3.3818305479        0.8037065627        0.3491760762
 H          3.4358973985       -0.9112467651       -0.1014816415
 H          2.9650596353        0.3293838517       -1.2904120124
 H          0.5530583123        1.2612317869       -1.2080630806
 H          0.9972291248        1.9963863338        0.3650453609
  13
  -28.0396139200000       6.336468736593444E-002 !
 C          2.8959142460        0.0132471000       -0.2864934971
 C          1.4853392880       -0.1100555977        0.1746594469
 O          1.0205574614       -1.0808508710        0.7299661594
 C          0.6101049761        1.1101209957       -0.1029385344
 O         -0.6913468683        0.9276328804        0.4328153511
 N         -1.4515528092       -0.0377411339       -0.1529546058
 O         -1.0515971666       -0.5158041616       -1.1689347800
 O         -2.4669196892       -0.2683364387        0.4231171034
 H          3.5537777946       -0.0839856920        0.5749418708
 H          3.1230348354       -0.8205585232       -0.9476124558
 H          3.0771533213        0.9543679335       -0.7911658656
 H          0.5667348195        1.2897626181       -1.1824583113
 H          0.9980030852        1.9891606326        0.4124443312
  13
  -28.0365037600000       2.357852993549946E-003 !
 C          1.6849864405        0.2735199061       -1.0412488523
 C          1.6070617283       -0.1951834074        0.3720723274
 O          2.4686008142       -0.8370430926        0.9273535053
 C          0.3472088426        0.1903797543        1.1463550860
 O         -0.6385764705        0.8589127064        0.3817197302
 N         -1.4845950198        0.0857607537       -0.3659494024
 O         -1.3290738787       -1.0941866165       -0.3311110763
 O         -2.2887345933        0.7129502716       -0.9755770633
 H          1.0515503409       -0.3662235175       -1.6563169329
 H          1.3259224916        1.2961993202       -1.1256218661
 H          2.7058530932        0.1906657054       -1.4016129159
 H          0.6242017146        0.8996131472        1.9298533997
 H         -0.0647265436       -0.7097128647        1.6150882370
  13
  -28.0364990200000       2.346055982542874E-003 !
 C          1.3313240335       -1.0922839083        1.0222765700
 C          1.6540556019        0.0043453896        0.0647285121
 O          2.7012373483        0.1042120093       -0.5317585756
 C          0.5729126050        1.0650618156       -0.1393255343
 O         -0.6586170777        0.7869077153        0.5005922373
 N         -1.5189410264       -0.0625928131       -0.1402788403
 O         -1.1705861226       -0.5146871366       -1.1853292891
 O         -2.5333311792       -0.2480084410        0.4498629327
 H          2.2407618772       -1.6123272814        1.3075599640
 H          0.8183145177       -0.6991650303        1.8964213374
 H          0.6714910125       -1.8049756608        0.5268081628
 H          0.4301161228        1.2199785219       -1.2140421640
 H          0.9164122130        2.0003802949        0.3089963992
  13
  -28.0364923700000       2.329604748212902E-003 !
 C          1.3295013625       -1.1044886340        1.0079142182
 C          1.6547191091        0.0063304570        0.0676892158
 O          2.7056594076        0.1177098194       -0.5202750047
 C          0.5714897086        1.0659515659       -0.1307756578
 O         -0.6605212669        0.7820921599        0.5057297880
 N         -1.5192604543       -0.0633707925       -0.1425887080
 O         -1.1681256315       -0.5093068499       -1.1893129372
 O         -2.5354061452       -0.2517957166        0.4434978987
 H          0.6762147764       -1.8129518833        0.4978721574
 H          2.2390284814       -1.6247438603        1.2925862997
 H          0.8089003774       -0.7255549549        1.8837946672
 H          0.4294545959        1.2264833623       -1.2048012207
 H          0.9126178854        1.9995425187        0.3228078899
  13
  -28.0364918800000       2.328397125215602E-003 !
 C          1.3247858283       -1.1389616012        0.9677799986
 C          1.6615423896        0.0115133938        0.0810109277
 O          2.7271902111        0.1587618327       -0.4715248765
 C          0.5693652482        1.0629441225       -0.1115072985
 O         -0.6624719648        0.7610163797        0.5167270108
 N         -1.5243712084       -0.0641481189       -0.1534274758
 O         -1.1782122261       -0.4791684096       -1.2143706420
 O         -2.5382232919       -0.2688938181        0.4310964359
 H          0.7898054011       -0.7979542478        1.8508073847
 H          0.6805931374       -1.8259143309        0.4183316126
 H          2.2311327153       -1.6684733812        1.2452707041
 H          0.4301854181        1.2300914229       -1.1850373960
 H          0.8997431423        1.9966041864        0.3496154624
  13
  -28.0364901000000       2.324015514955735E-003 !
 C          1.6923390215        0.2770212819       -1.0422610543
 C          1.6027592042       -0.1969800574        0.3687121474
 O          2.4492802768       -0.8605773897        0.9214710244
 C          0.3521133040        0.2162442284        1.1438066758
 O         -0.6352903394        0.8717479999        0.3697291764
 N         -1.4821457726        0.0841037197       -0.3617887710
 O         -1.3275873335       -1.0950356479       -0.3022388118
 O         -2.2854911777        0.6989233091       -0.9848757913
 H          2.7145906639        0.1874497811       -1.3972053908
 H          1.0588051298       -0.3567136741       -1.6634143260
 H          1.3405466744        1.3022212636       -1.1257192560
 H          0.6413575610        0.9453391725        1.9043916215
 H         -0.0618819632       -0.6672846136        1.6409959288
  13
  -28.0364885100000       2.320108577291840E-003 !
 C          1.6822781268        0.2717455248       -1.0408488166
 C          1.6092913498       -0.1940196647        0.3736484537
 O          2.4775374586       -0.8257459529        0.9301466794
 C          0.3449688707        0.1778289685        1.1472769458
 O         -0.6404139182        0.8529082766        0.3877804256
 N         -1.4860892973        0.0865957866       -0.3678500534
 O         -1.3302574494       -1.0935476143       -0.3442656588
 O         -2.2900197312        0.7194008448       -0.9717548365
 H          1.3169566007        1.2920594834       -1.1271718752
 H          2.7030545050        0.1944317989       -1.4027105886
 H          1.0517471577       -0.3736541416       -1.6528748266
 H          0.6164450659        0.8766782178        1.9419250109
 H         -0.0657427109       -0.7302929186        1.6016963516
  13
  -28.0356589500000       9.644260440799274E-004 !
 C          1.9846347432        0.8811902862        1.1199224042
 C          1.8860194896       -0.2445787856        0.1570614218
 O          2.8159101501       -0.9238933046       -0.2140446810
 C          0.4894674545       -0.5376405179       -0.3828713007
 O         -0.4534815891        0.3801768651        0.1485169218
 N         -1.7614638502        0.1764358646       -0.1838253303
 O         -2.0099284275       -0.7473527874       -0.8923270782
 O         -2.5052606348        0.9715044227        0.2919306550
 H          1.6145897424        1.7892475774        0.6494199118
 H          1.3401900125        0.6821779690        1.9732115719
 H          3.0125925958        1.0115965099        1.4431028266
 H          0.2158247642       -1.5656686333       -0.1182111582
 H          0.5105676161       -0.4759516609       -1.4769135666
  13
  -28.0356544900000       9.598851121194265E-004 !
 C          2.0251520624        1.0203310460        0.9159723123
 C          1.8812416657       -0.2642603328        0.1857095316
 O          2.7897486543       -1.0195962708       -0.0749637769
 C          0.4653987592       -0.6259751054       -0.2529206120
 O         -0.4506100830        0.3869584292        0.1331990843
 N         -1.7582527918        0.1913244883       -0.2050079108
 O         -2.0289672584       -0.8073168296       -0.7936137636
 O         -2.4790461870        1.0694218333        0.1429996099
 H          1.3951346132        1.0033212436        1.8023600830
 H          3.0626834248        1.1836498001        1.1897862439
 H          1.6654318723        1.8322734257        0.2879943329
 H          0.1888389024       -1.5858837329        0.1984961391
 H          0.4537725528       -0.7607072612       -1.3406668933
  13
  -28.0356350800000       9.403705884017562E-004 !
 C          2.0106221107        0.9742540979        0.9937031661
 C          1.8822874721       -0.2600758366        0.1787416763
 O          2.7947463296       -1.0024510497       -0.1043065315
 C          0.4786760026       -0.5823991619       -0.3250628102
 O         -0.4520044440        0.3822514527        0.1411282244
 N         -1.7592608506        0.1871703587       -0.1984109088
 O         -2.0179488525       -0.7695029829       -0.8579188105
 O         -2.4921684833        1.0227178374        0.2216162085
 H          3.0435516017        1.1228377575        1.2922343436
 H          1.6537258240        1.8248087417        0.4176486954
 H          1.3701346423        0.8943044536        1.8691948614
 H          0.1980015125       -1.5850008626        0.0173852333
 H          0.4931207037       -0.6029502180       -1.4209992250
  13
  -28.0356334600000       9.387599149709940E-004 !
 C          2.1212629149        1.0856669934       -0.1861105537
 C          1.8368786786       -0.2747824603        0.3386154531
 O          2.6784639967       -1.0889274004        0.6435621138
 C          0.3629355502       -0.6365433286        0.4961328972
 O         -0.4740876934        0.4614476847        0.1705504716
 N         -1.7178466006        0.1903642463       -0.3292996844
 O         -2.0294254601       -0.9510441625       -0.4557249326
 O         -2.3459374622        1.1657435262       -0.5840083664
 H          3.1925970702        1.2534812772       -0.2336748779
 H          1.6813911277        1.1924510761       -1.1751638441
 H          1.6457071033        1.8235585938        0.4560015056
 H          0.1854419194       -0.9471421011        1.5314036091
 H          0.1370755891       -1.4929770997       -0.1503836513
  13
  -28.0356012300000       9.072827514781638E-004 !
 C          2.1210435869        1.1029665270       -0.1397057202
 C          1.8400595878       -0.2771716374        0.3325153700
 O          2.6830440315       -1.0984286683        0.6134057150
 C          0.3663104090       -0.6501677931        0.4640223507
 O         -0.4697764608        0.4551414386        0.1614296025
 N         -1.7205667962        0.1928333215       -0.3235126723
 O         -2.0380901372       -0.9465726075       -0.4537068650
 O         -2.3486737421        1.1722686548       -0.5626701129
 H          1.6820700748        1.2454303351       -1.1246422986
 H          1.6411132728        1.8141978248        0.5287139396
 H          3.1917286863        1.2767933361       -0.1783115621
 H          0.1784525633       -0.9927343008        1.4873795218
 H          0.1509804858       -1.4875853947       -0.2102994018
  13
  -28.0352997500000       6.594654379619311E-004 !
 C          1.9542313682        0.3895680796       -0.9932160699
 C          1.5759574725       -0.2201042149        0.3123472971
 O          2.1552771213       -1.1472846157        0.8281347219
 C          0.4172741896        0.4592807482        1.0513967377
 O         -0.5899978184        0.9684102986        0.1943856574
 N         -1.4895601173        0.0641422198       -0.3031545597
 O         -1.3653925472       -1.0733398788        0.0245470372
 O         -2.3005253258        0.5489720934       -1.0245120690
 H          1.0908061211        0.7614604077       -1.5363356953
 H          2.6001752519        1.2408633502       -0.7791208923
 H          2.5140618444       -0.3220698548       -1.5926736309
 H          0.8042336436        1.3402258396        1.5688585127
 H         -0.0040460300       -0.2412006800        1.7787330777
  13
  -28.0352990600000       6.589841020899383E-004 !
 C          1.6544396407       -0.4175023522        1.4059433801
 C          1.5992899790       -0.1004660899       -0.0494083463
 O          2.3215289098       -0.5945537604       -0.8834238873
 C          0.5964690563        0.9852691916       -0.4559429919
 O         -0.6080920217        0.9574431165        0.2902455929
 N         -1.5040756971       -0.0264050021       -0.0317242061
 O         -1.2067498229       -0.7745062698       -0.9084750874
 O         -2.4913174924       -0.0056567901        0.6298506042
 H          2.4460616430        0.1935395096        1.8396044601
 H          0.7259931594       -0.1804392709        1.9154685864
 H          1.9272910801       -1.4589207698        1.5523745675
 H          0.3951682054        0.9052975753       -1.5284326188
 H          1.0300045951        1.9625828236       -0.2312826333
  13
  -28.0352982300000       6.584055693201899E-004 !
 C          1.6548876227       -0.4175284079        1.4076730654
 C          1.6019560759       -0.1008422778       -0.0477307947
 O          2.3283134802       -0.5917740667       -0.8800928957
 C          0.5963895973        0.9812732858       -0.4571502085
 O         -0.6071772782        0.9542945884        0.2904775634
 N         -1.5064880412       -0.0259294230       -0.0331886204
 O         -1.2135223553       -0.7714436973       -0.9136257167
 O         -2.4919972398       -0.0051290808        0.6310652154
 H          0.7140125926       -0.2135198244        1.9088279759
 H          1.9623352774       -1.4488394913        1.5560206095
 H          2.4191129892        0.2220541937        1.8493706439
 H          0.3940613641        0.8967659424       -1.5291000677
 H          1.0284371187        1.9602638850       -0.2373308142
  13
  -28.0336237300000       1.119300190539837E-004 !
 C          3.0965562724        0.2329118825       -0.3067688176
 C          1.8213136205       -0.1298652076        0.3797581504
 O          1.7425898398       -0.5150189596        1.5203844913
 C          0.5891966608        0.0473200672       -0.5039453588
 O         -0.5752427716       -0.2147372280        0.2728487327
 N         -1.7729562973        0.1021915049       -0.2904139263
 O         -1.7582110941        0.5660986941       -1.3876330881
 O         -2.7106586394       -0.1294553591        0.4022619058
 H          3.9381362404       -0.1883076984        0.2348289804
 H          3.0976166265       -0.1002014951       -1.3391089482
 H          3.1928221542        1.3171902491       -0.3012023358
 H          0.6378254335       -0.6544120036       -1.3436955735
 H          0.5546564636        1.0665397557       -0.9032900249
