  14
    -0.803527 !GC
 C          0.0000000000        0.0000000000        0.0000000000
 C          1.5226554895        0.0000000000        0.0000000000
 C          2.0401439760        1.4337289291        0.0000000000
 C          1.6645687167        2.1745101648       -1.2641206936
 I          2.5876306503        1.3463344157       -3.0586757639
 H         -0.3665496584       -1.0175146707        0.1152517732
 H         -0.3746508896        0.5908832765        0.8298296733
 H         -0.3926365892        0.4174407275       -0.9250731926
 H          1.8912308803       -0.5439470491       -0.8745283154
 H          1.8834221176       -0.5128092544        0.8952934751
 H          1.6056074031        1.9789992251        0.8429331797
 H          3.1245172850        1.4331577225        0.1319902086
 H          2.0025266869        3.2076593787       -1.2262705918
 H          0.5952744760        2.1386814519       -1.4549795606
  14
    -0.695479 !GC
 C          0.0000000000        0.0000000000        0.0000000000
 C          1.5223436079        0.0000000000        0.0000000000
 C          2.0397383279        1.4338577328        0.0000000000
 C          1.6587826520        2.1752597441       -1.2618615720
 I          2.5762536120        1.3506655169       -3.0586971429
 H         -0.3619192793        0.6113254041        0.8226302634
 H         -0.3767535310        0.4229185206       -0.9269268251
 H         -0.3938672074       -1.0093181317        0.1042748131
 H          1.8901796003       -0.5443792049       -0.8743415863
 H          1.8828240626       -0.5130683646        0.8950569606
 H          1.6084818084        1.9786495972        0.8451115400
 H          3.1248354876        1.4337556187        0.1269531047
 H          1.9988360046        3.2075653533       -1.2263749733
 H          0.5887747584        2.1412974847       -1.4475274949
  14
    -0.243804 !GC
 C          0.0000000000        0.0000000000        0.0000000000
 C          1.5234146285        0.0000000000        0.0000000000
 C          2.0852932058        1.4191128174        0.0000000000
 C          3.5967410619        1.4689520879        0.0509746603
 I          4.5263119141        0.6959966474       -1.7603745076
 H         -0.4065800855        0.5123526850        0.8692865731
 H         -0.3661499439        0.5108120381       -0.8851638892
 H         -0.3687774687       -1.0234861400       -0.0212305784
 H          1.8820240992       -0.5326683843       -0.8839255496
 H          1.8883874026       -0.5336252464        0.8809018622
 H          1.7224465475        1.9564111325       -0.8791627168
 H          1.7190525588        1.9475515714        0.8853112050
 H          3.9907783264        0.8620374536        0.8619059341
 H          3.9612813864        2.4883386956        0.1408462141
  14
    -0.243697 !GC
 C          0.0000000000        0.0000000000        0.0000000000
 C          1.5236274700        0.0000000000        0.0000000000
 C          2.0865947334        1.4187791491        0.0000000000
 C          3.5974889564        1.4673012385        0.0720849583
 I          4.5648686980        0.6631183171       -1.7068140380
 H         -0.3793942853       -1.0192608872       -0.0064194807
 H         -0.3758585106        0.4990645636        0.8882355818
 H         -0.3868540133        0.5163584645       -0.8767276290
 H          1.8817652060       -0.5320266623       -0.8843852791
 H          1.8884841324       -0.5344454237        0.8805002242
 H          1.7355621200        1.9514339018       -0.8868116207
 H          1.7099681823        1.9526867013        0.8776591662
 H          3.9779871935        0.8742027093        0.8992129904
 H          3.9618875472        2.4877337946        0.1504824819
  14
    -0.238608 !GC
 C          0.0000000000        0.0000000000        0.0000000000
 C          1.5235656488        0.0000000000        0.0000000000
 C          2.0865290864        1.4186895886        0.0000000000
 C          3.5976998608        1.4662701093        0.0651254715
 I          4.5541891407        0.6757349267       -1.7268636836
 H         -0.3833359828        0.5051801709        0.8847967967
 H         -0.3744352694        0.5182122922       -0.8778682125
 H         -0.3843343239       -1.0176672365       -0.0096627294
 H          1.8817517943       -0.5323302287       -0.8839439986
 H          1.8882783242       -0.5340498860        0.8807894900
 H          1.7314059871        1.9529306231       -0.8841993277
 H          1.7136632212        1.9509663440        0.8802296831
 H          3.9814581011        0.8692209080        0.8880942177
 H          3.9630495200        2.4861388410        0.1473171415
  14
    -0.238379 !GC
 C          0.0000000000        0.0000000000        0.0000000000
 C          1.5232170530        0.0000000000        0.0000000000
 C          2.0853586505        1.4191286125        0.0000000000
 C          3.5966064609        1.4661361254        0.0564753431
 I          4.5417691784        0.6802197044       -1.7406689476
 H         -0.3763287716       -1.0195943579       -0.0027462862
 H         -0.3806387290        0.5032032571        0.8858512103
 H         -0.3839029041        0.5120688046       -0.8797080861
 H          1.8810800385       -0.5330483839       -0.8837585498
 H          1.8877590924       -0.5341362565        0.8806326060
 H          1.7256680680        1.9559501924       -0.8808741287
 H          1.7181753103        1.9492712803        0.8839785201
 H          3.9864426613        0.8608622395        0.8702347517
 H          3.9627371513        2.4848657938        0.1458059376
  14
    -0.231844 !GC
 C          0.0000000000        0.0000000000        0.0000000000
 C          1.5236364277        0.0000000000        0.0000000000
 C          2.0846568683        1.4195384305        0.0000000000
 C          3.5969418304        1.4686224954        0.0332582276
 I          4.5081370878        0.7214774220       -1.8010355702
 H         -0.4071535815       -1.0089108774       -0.0115986251
 H         -0.3645058481        0.5243780132        0.8799353183
 H         -0.3706558842        0.5172252034       -0.8807117067
 H          1.8819042612       -0.5336258967       -0.8835696030
 H          1.8889801210       -0.5329948809        0.8811644416
 H          1.7104668466        1.9612636524       -0.8715316635
 H          1.7289525501        1.9430654138        0.8923324689
 H          3.9996134359        0.8487719782        0.8298978386
 H          3.9636304447        2.4861885145        0.1360461220
  14
    -0.230625 !GC
 C          0.0000000000        0.0000000000        0.0000000000
 C          1.5234086987        0.0000000000        0.0000000000
 C          2.1046345509        1.4005374865        0.0000000000
 C          3.1802863339        1.6261713325       -1.0404060578
 I          4.9255643946        0.3528362477       -0.7507541862
 H         -0.3773206011        0.5928471762        0.8305400569
 H         -0.3981220841        0.4024000518       -0.9278584751
 H         -0.3724636545       -1.0152973445        0.1084980367
 H          1.8916534176       -0.5419242350       -0.8746314464
 H          1.8910170654       -0.5119537110        0.8935251598
 H          1.3027342890        2.1174329502       -0.2037277947
 H          2.4968593176        1.6068653751        0.9997317090
 H          3.5629941016        2.6419956635       -0.9952189614
 H          2.8313936934        1.4108197212       -2.0447642721
  14
    -0.228163 !GC
 C          0.0000000000        0.0000000000        0.0000000000
 C          1.5237266362        0.0000000000        0.0000000000
 C          2.0855870404        1.4191840603        0.0000000000
 C          3.5953901337        1.4656418583        0.0936768306
 I          4.5888810834        0.6421563346       -1.6633449289
 H         -0.3667333187        0.4811508431        0.9047592357
 H         -0.4044874324        0.5129198261       -0.8693457160
 H         -0.3707157592       -1.0218051547       -0.0146354268
 H          1.8828161083       -0.5325737916       -0.8838820281
 H          1.8876695679       -0.5341852610        0.8812307407
 H          1.7472053076        1.9466096016       -0.8947880365
 H          1.6967708717        1.9583368987        0.8691577275
 H          3.9631195844        0.8798404589        0.9317892945
 H          3.9600135188        2.4860222608        0.1683982566
  14
    -0.226078 !GC
 C          0.0000000000        0.0000000000        0.0000000000
 C          1.5233804376        0.0000000000        0.0000000000
 C          2.1083940731        1.3990377603        0.0000000000
 C          3.1421825444        1.6435881217       -1.0779234714
 I          4.8913593271        0.3541562633       -0.8943404689
 H         -0.3703619368        0.6117202569        0.8181359011
 H         -0.3764282776        0.4136890917       -0.9318470530
 H         -0.4021290183       -1.0023668107        0.1277142733
 H          1.8915544913       -0.5429301902       -0.8738650139
 H          1.8901626464       -0.5116735275        0.8939865975
 H          1.3007200589        2.1211096366       -0.1564535158
 H          2.5423982997        1.5856862607        0.9861380201
 H          3.5330289520        2.6557342509       -1.0219493252
 H          2.7491982556        1.4590265626       -2.0726319154
  14
    -0.104610 !GC
 C          0.0000000000        0.0000000000        0.0000000000
 C          1.5233254293        0.0000000000        0.0000000000
 C          2.1052659809        1.4002242757        0.0000000000
 C          3.1669245927        1.6324361696       -1.0532408766
 I          4.9141036754        0.3510163202       -0.8098201939
 H         -0.3657079292       -1.0170574490        0.1137562863
 H         -0.3844955242        0.6012242656        0.8203583668
 H         -0.3982059778        0.3898072090       -0.9332639130
 H          1.8910760416       -0.5419188789       -0.8747187545
 H          1.8916736173       -0.5119171992        0.8931375671
 H          1.3010637534        2.1186462719       -0.1880774592
 H          2.5111516434        1.6001096062        0.9953775445
 H          3.5551136718        2.6458779267       -1.0016019679
 H          2.8020542801        1.4314590389       -2.0553837598
  14
    -0.007429 !GC
 C          0.0000000000        0.0000000000        0.0000000000
 C          1.5234637069        0.0000000000        0.0000000000
 C          2.1077632834        1.3993525397        0.0000000000
 C          3.1558523067        1.6371434653       -1.0655664262
 I          4.9043547574        0.3552844008       -0.8356026178
 H         -0.3819590068        0.4155144576       -0.9299018230
 H         -0.3900922161       -1.0076547189        0.1126471992
 H         -0.3764087080        0.6001206983        0.8250817846
 H          1.8921318207       -0.5429353195       -0.8737775309
 H          1.8895055126       -0.5117091586        0.8943732839
 H          1.3019384439        2.1200775440       -0.1721866270
 H          2.5282517013        1.5924354590        0.9909466271
 H          3.5410044086        2.6517907586       -1.0158956782
 H          2.7787377716        1.4381732337       -2.0631461132
