  14
  -16.9720500200000       7.252308506911595E-002 !
 C         -3.8673897145       -0.6955924733       -0.1505559482
 C         -2.5082941913       -0.3040095870        0.4156321861
 C         -1.9009331004        0.8711925939       -0.3456619563
 C         -0.5771161520        1.3352180206        0.2218297803
 I          1.0150565822       -0.1340085584       -0.0154809665
 H         -4.5648321978        0.1360372916       -0.0810189346
 H         -3.7767698232       -0.9818071836       -1.1958306812
 H         -4.2789061269       -1.5367169576        0.4008411891
 H         -1.8344234057       -1.1620792488        0.3575530565
 H         -2.6155162392       -0.0360484943        1.4695712283
 H         -1.7855312846        0.6049196271       -1.3987119183
 H         -2.5855257948        1.7229868972       -0.2927941320
 H         -0.6416473888        1.5188798022        1.2910454650
 H         -0.2151513057        2.2256677024       -0.2846091247
  14
  -16.9720499600000       7.251848060191134E-002 !
 C         -3.8681520798       -0.6955242909       -0.1503369453
 C         -2.5084440401       -0.3046080616        0.4149851369
 C         -1.9010993755        0.8709998161       -0.3457480571
 C         -0.5772270533        1.3349667381        0.2215820452
 I          1.0151951847       -0.1339046451       -0.0153952374
 H         -4.2792786335       -1.5373353069        0.4003469328
 H         -4.5655205020        0.1360927017       -0.0792230655
 H         -3.7783999068       -0.9804960435       -1.1960395710
 H         -1.8347759002       -1.1627490277        0.3556143365
 H         -2.6147164613       -0.0374716165        1.4692406330
 H         -1.7858256828        0.6052816136       -1.3989538030
 H         -2.5856630284        1.7227858984       -0.2924051183
 H         -0.6420242339        1.5188788906        1.2907064062
 H         -0.2153770124        2.2253796459       -0.2849556229
  14
  -16.9720497900000       7.250543619930232E-002 !
 C         -3.8671754362       -0.6945727954       -0.1507529162
 C         -2.5072699274       -0.3043890088        0.4147287135
 C         -1.9022842374        0.8727031713       -0.3456141305
 C         -0.5778965261        1.3361134353        0.2206702071
 I          1.0151892932       -0.1343685664       -0.0152616868
 H         -3.7780865281       -0.9779523782       -1.1969584565
 H         -4.2774915204       -1.5373646837        0.3989546674
 H         -4.5650255518        0.1365314486       -0.0779749918
 H         -1.8328885057       -1.1620132238        0.3539896537
 H         -2.6130694842       -0.0384502577        1.4693780923
 H         -1.7881711845        0.6089918818       -1.3994436775
 H         -2.5870939279        1.7241470980       -0.2898972526
 H         -0.6418255870        1.5172512950        1.2903324823
 H         -0.2207194900        2.2297255061       -0.2835820336
  14
  -16.9720424900000       7.194750233023589E-002 !
 C         -3.8754463161       -0.6867255144        0.0016743323
 C         -2.4825585312       -0.3532489916       -0.5177703557
 C         -1.9155186580        0.8933140371        0.1561876671
 C         -0.5619408885        1.3042553167       -0.3811059144
 I          1.0130282555       -0.1284934451        0.0838658960
 H         -4.5632899454        0.1325622538       -0.1948464484
 H         -4.2569152335       -1.5803859831       -0.4849168852
 H         -3.8498623315       -0.8643766400        1.0742967214
 H         -2.5249830331       -0.1931706494       -1.5979041941
 H         -1.8178744610       -1.2004566300       -0.3328636041
 H         -2.5945313903        1.7333979847       -0.0177257811
 H         -1.8582996732        0.7325184455        1.2351152473
 H         -0.2266504173        2.2412142490        0.0547595020
 H         -0.5682138857        1.3825938340       -1.4650147427
  14
  -16.9720421300000       7.192009913879178E-002 !
 C         -3.8754053469       -0.6867920036        0.0017741103
 C         -2.4826761810       -0.3530202782       -0.5179066186
 C         -1.9155926429        0.8934436564        0.1561943956
 C         -0.5619828641        1.3044121246       -0.3810175770
 I          1.0130517360       -0.1285437845        0.0838585827
 H         -4.2569826018       -1.5802714283       -0.4850690763
 H         -3.8495073262       -0.8648727422        1.0743162633
 H         -4.5633322552        0.1325517289       -0.1942163232
 H         -2.5253773463       -0.1927136044       -1.5979957680
 H         -1.8178621913       -1.2002002518       -0.3333394708
 H         -2.5946005765        1.7335557322       -0.0176198399
 H         -1.8583895536        0.7325075984        1.2351016966
 H         -0.2268665235        2.2414320521        0.0548618059
 H         -0.5683627703        1.3828995681       -1.4649167509
  14
  -16.9720419000000       7.190259700900968E-002 !
 C         -3.8750610712       -0.6868410019        0.0018656217
 C         -2.4824831387       -0.3528797798       -0.5180766138
 C         -1.9153552755        0.8934605803        0.1562340231
 C         -0.5617754132        1.3045064211       -0.3809772640
 I          1.0129384748       -0.1285646651        0.0838570703
 H         -3.8489101845       -0.8652379205        1.0743522765
 H         -4.5630408387        0.1325513507       -0.1937309466
 H         -4.2567269411       -1.5801822369       -0.4851597794
 H         -2.5254416510       -0.1923441445       -1.5981243108
 H         -1.8176067187       -1.2000813625       -0.3338431160
 H         -2.5943153316        1.7336336625       -0.0174578426
 H         -1.8581445791        0.7323764532        1.2351228602
 H         -0.2265330223        2.2414249830        0.0550139824
 H         -0.5680050112        1.3829611931       -1.4648775330
  14
  -16.9719231300000       6.341057099537271E-002 !
 C         -4.3245657598       -0.9377594019       -0.0610689945
 C         -3.2693835252        0.0333936400        0.4548970870
 C         -1.8680846653       -0.3728271902       -0.0053719414
 C         -0.8383111293        0.6052341912        0.5176251280
 I          1.1802774932        0.0793747468       -0.1022250871
 H         -4.1288836954       -1.9430928916        0.3042048206
 H         -5.3128872749       -0.6355407040        0.2747259164
 H         -4.3221427932       -0.9613291903       -1.1481905744
 H         -3.2989454015        0.0575125380        1.5462863040
 H         -3.4918550161        1.0394517949        0.0930537183
 H         -1.6451350656       -1.3785537303        0.3575922053
 H         -1.8384130391       -0.3972353868       -1.0968991831
 H         -0.8157223693        0.6226747370        1.6040474989
 H         -1.0084160279        1.6095961575        0.1388306879
  14
  -16.9719231300000       6.341057099537271E-002 !
 C         -4.3241497606       -0.9376937156       -0.0610796708
 C         -3.2691483112        0.0336013905        0.4549796449
 C         -1.8679030545       -0.3727913607       -0.0053346123
 C         -0.8382885654        0.6054098775        0.5177088515
 I          1.1801800764        0.0793214147       -0.1022473875
 H         -5.3124424168       -0.6354277178        0.2746177984
 H         -4.3217296569       -0.9614308526       -1.1481962402
 H         -4.1285502070       -1.9429766598        0.3043591515
 H         -3.2987775414        0.0578518405        1.5463825309
 H         -3.4916223927        1.0396190284        0.0929804961
 H         -1.6449178144       -1.3784693022        0.3577877091
 H         -1.8381422334       -0.3972942768       -1.0968774729
 H         -0.8155735889        0.6227787468        1.6041393315
 H         -1.0085724996        1.6097685297        0.1389667956
  14
  -16.9719231000000       6.340855800522308E-002 !
 C         -4.3242880996       -0.9377701171       -0.0609999963
 C         -3.2692535866        0.0335775090        0.4548989671
 C         -1.8680440384       -0.3728784911       -0.0054656370
 C         -0.8383065871        0.6050860360        0.5177884116
 I          1.1802245634        0.0793778798       -0.1022415811
 H         -4.3218093800       -0.9616675052       -1.1481022112
 H         -4.1287591238       -1.9430287481        0.3045802791
 H         -5.3125835523       -0.6353823776        0.2745827481
 H         -3.2988285355        0.0578747448        1.5463018557
 H         -3.4917174683        1.0395901139        0.0928643281
 H         -1.6451759511       -1.3786418967        0.3574904767
 H         -1.8382621885       -0.3971996098       -1.0970139866
 H         -0.8156617973        0.6223400292        1.6042242522
 H         -1.0083338112        1.6095175284        0.1391265161
  14
  -16.9712451000000       3.094287411826040E-002 !
 C         -3.2489854994       -0.6599106618       -0.5960271943
 C         -2.5367345911       -0.1549455459        0.6538375541
 C         -1.8160552609        1.1765343318        0.4452020204
 C         -0.6950937379        1.1385289816       -0.5718355183
 I          0.9490408529       -0.1660356449        0.0145606127
 H         -2.5400639630       -0.9307357520       -1.3747712827
 H         -3.8330487516       -1.5451315469       -0.3582408941
 H         -3.9216260321        0.1003237247       -0.9873492872
 H         -1.8201452476       -0.9070059665        0.9921222441
 H         -3.2699660234       -0.0207971366        1.4513761160
 H         -2.5363558586        1.9196295032        0.0902249553
 H         -1.4257873719        1.5244499207        1.4044086755
 H         -0.2449527888        2.1196987858       -0.6955417540
 H         -1.0303225087        0.7675981362       -1.5353739663
  14
  -16.9712450500000       3.094123698206324E-002 !
 C         -3.2543471128       -0.6596120976       -0.5958455101
 C         -2.5372755181       -0.1579657731        0.6526093630
 C         -1.8168914557        1.1738036966        0.4447916654
 C         -0.6961825009        1.1362912144       -0.5725592822
 I          0.9499555173       -0.1651740992        0.0148055037
 H         -3.8364277651       -1.5463011052       -0.3586109858
 H         -3.9295012435        0.1012203491       -0.9816392662
 H         -2.5485230621       -0.9268763125       -1.3786097878
 H         -1.8197700494       -0.9111108978        0.9865194397
 H         -3.2676714780       -0.0255657194        1.4530187519
 H         -2.5374463719        1.9169328332        0.0904186523
 H         -1.4263786144        1.5213330761        1.4040518948
 H         -0.2475189107        2.1179800621       -0.6975501831
 H         -1.0309182386        0.7635804225       -1.5355920542
  14
  -16.9712444700000       3.092225253121118E-002 !
 C         -3.2537935332       -0.6596233150       -0.5958798858
 C         -2.5372323201       -0.1576825535        0.6527673163
 C         -1.8167964538        1.1740527677        0.4448460729
 C         -0.6960883939        1.1365036274       -0.5724959379
 I          0.9498631169       -0.1652565812        0.0147789917
 H         -3.9284157530        0.1012725539       -0.9824377137
 H         -2.5476539063       -0.9275177702       -1.3781242343
 H         -3.8363727318       -1.5459655230       -0.3586371590
 H         -1.8198502119       -0.9107480599        0.9871394717
 H         -3.2679434211       -0.0251061048        1.4528624038
 H         -2.5372780364        1.9172815653        0.0905638231
 H         -1.4262153387        1.5215860004        1.4040561727
 H         -0.2473401437        2.1181646323       -0.6973806980
 H         -1.0308172581        0.7638699808       -1.5355733274
  14
  -16.9712366300000       3.066677508662128E-002 !
 C         -3.2778646571       -0.5796808299        0.5650558293
 C         -2.5130273865       -0.2533550972       -0.7128293601
 C         -1.7978310354        1.0964206118       -0.6639441039
 C         -0.7134874465        1.2015464672        0.3874901333
 I          0.9499327359       -0.1629946920        0.0411548587
 H         -3.9668115717        0.2242376035        0.8151553852
 H         -3.8510073251       -1.4934709693        0.4316509248
 H         -2.6028976526       -0.7319535103        1.4038130045
 H         -3.2124981221       -0.2350408532       -1.5507389634
 H         -1.7851815058       -1.0433530439       -0.9121763300
 H         -1.3732256332        1.3109546919       -1.6473708713
 H         -2.5289449007        1.8788989700       -0.4398915570
 H         -1.0823422907        0.9626920101        1.3800950832
 H         -0.2680026438        2.1925467782        0.3930162859
  14
  -16.9712365000000       3.066255669176097E-002 !
 C         -3.2741752700       -0.5802152813        0.5655689981
 C         -2.5126516346       -0.2510626350       -0.7135676368
 C         -1.7972709375        1.0985585713       -0.6635577703
 C         -0.7126631344        1.2025669905        0.3876992479
 I          0.9492948612       -0.1635407326        0.0411107619
 H         -3.8489154102       -1.4928455945        0.4310212860
 H         -2.5969097945       -0.7359959484        1.4018500224
 H         -3.9613163772        0.2238863124        0.8200844820
 H         -3.2141975624       -0.2307078436       -1.5496872512
 H         -1.7854177552       -1.0406962529       -0.9165380914
 H         -1.3729455745        1.3138899437       -1.6469343282
 H         -2.5281787675        1.8809639952       -0.4385369153
 H         -1.0815417169        0.9640923720        1.3803896527
 H         -0.2661147104        2.1930882680        0.3930430795
  14
  -16.9712350200000       3.061457277632496E-002 !
 C         -3.2988919577       -0.5771361508        0.5623057278
 C         -2.5170439037       -0.2652044256       -0.7089157640
 C         -1.8035318801        1.0855804023       -0.6663148527
 C         -0.7202381145        1.1926690142        0.3859422185
 I          0.9542514819       -0.1597826268        0.0414790146
 H         -2.6357186190       -0.7144892114        1.4129141537
 H         -3.9945358861        0.2273410716        0.7910882601
 H         -3.8663244510       -1.4951946710        0.4335292163
 H         -3.2053541038       -0.2567944388       -1.5560924047
 H         -1.7861999576       -1.0569807692       -0.8896517004
 H         -1.3772984369        1.2958692975       -1.6499729312
 H         -2.5349283441        1.8690789092       -0.4466073629
 H         -1.0895203960        0.9531475813        1.3782591025
 H         -0.2779832450        2.1849529592        0.3921047815
  14
  -16.9712147600000       2.996521181474295E-002 !
 C         -3.8907985447       -0.8476611466       -0.5084038459
 C         -3.2999630861        0.0024664170        0.6111667404
 C         -1.7969616551       -0.2166502943        0.8105957612
 C         -1.0003538229        0.3064204855       -0.3662940552
 I          1.1429940756        0.0891783824       -0.0554209805
 H         -3.6636508311       -1.8991857287       -0.3483424235
 H         -4.9711964073       -0.7316951258       -0.5328615528
 H         -3.5000509539       -0.5526180410       -1.4788420572
 H         -3.8017106855       -0.2484654843        1.5472653289
 H         -3.4878830126        1.0587149894        0.4072293942
 H         -1.4829986941        0.3005825320        1.7200561462
 H         -1.6007646518       -1.2823461345        0.9474527718
 H         -1.1679498066        1.3687911537       -0.5231754999
 H         -1.2130587766       -0.2400309390       -1.2799041163
  14
  -16.9712143200000       2.995126308805407E-002 !
 C         -3.8911530584       -0.8477920501       -0.5082032547
 C         -3.3002695140        0.0028463581        0.6109488980
 C         -1.7973329115       -0.2166274294        0.8104737705
 C         -1.0003382967        0.3069319037       -0.3659301315
 I          1.1431098674        0.0890901626       -0.0554465756
 H         -4.9714759318       -0.7312565975       -0.5330618294
 H         -3.4999580786       -0.5536946921       -1.4787528422
 H         -3.6646230470       -1.8993245793       -0.3473015835
 H         -3.8021272297       -0.2474693332        1.5471551976
 H         -3.4879314256        1.0590384329        0.4064478057
 H         -1.4834419287        0.3001734262        1.7201860931
 H         -1.6012356249       -1.2824133073        0.9468688626
 H         -1.1677560686        1.3694109191       -0.5222775000
 H         -1.2131784401       -0.2389439075       -1.2798409996
  14
  -16.9712141600000       2.994619243370832E-002 !
 C         -3.8892551175       -0.8457037613       -0.5091140171
 C         -3.2998638507        0.0016130512        0.6132929025
 C         -1.7965767357       -0.2169898952        0.8105803652
 C         -1.0012161604        0.3087144622       -0.3660110372
 I          1.1428822942        0.0888617371       -0.0555987333
 H         -3.4992075444       -0.5470217473       -1.4786698788
 H         -3.6614335790       -1.8976551437       -0.3530320412
 H         -4.9696047687       -0.7304917613       -0.5327157486
 H         -3.8006136160       -0.2537319837        1.5487775899
 H         -3.4895212082        1.0584480604        0.4133049839
 H         -1.4832437478        0.2998493438        1.7203710265
 H         -1.5988511432       -1.2825664313        0.9465992967
 H         -1.1754427443        1.3699338735       -0.5243146805
 H         -1.2111568527       -0.2395940527       -1.2791247715
  14
  -16.9711972200000       2.941416511970584E-002 !
 C         -3.8215252408       -1.2078197484        0.2664042482
 C         -3.3462115097        0.2327355109        0.1112811491
 C         -1.9099170429        0.3448750526       -0.4096456780
 C         -0.9100015074       -0.1542396669        0.6122169081
 I          1.1420643535        0.0969687080       -0.0689071242
 H         -4.8745414425       -1.2251281194        0.5349705706
 H         -3.6981180611       -1.7520716175       -0.6671081192
 H         -3.2684411564       -1.7261952395        1.0453981178
 H         -3.4247809713        0.7495996059        1.0700589677
 H         -3.9998854979        0.7459453735       -0.5960535614
 H         -1.8134202923       -0.2283694814       -1.3342952042
 H         -1.7001063103        1.3914834605       -0.6415150404
 H         -1.0183788724       -1.2169677625        0.8055896116
 H         -0.9795611575        0.4004694293        1.5442815069
  14
  -16.9711970500000       2.940887418960024E-002 !
 C         -3.8215162733       -1.2085199712        0.2635188568
 C         -3.3473876634        0.2331315727        0.1151092901
 C         -1.9122682037        0.3473699128       -0.4082568890
 C         -0.9106425424       -0.1564755660        0.6098642150
 I          1.1425163653        0.0969650006       -0.0688974005
 H         -3.6984190429       -1.7484409123       -0.6727202212
 H         -3.2679302157       -1.7302536378        1.0401179894
 H         -4.8744526986       -1.2269834632        0.5325825640
 H         -3.4243436761        0.7454398551        1.0765338395
 H         -4.0021585917        0.7497238991       -0.5887622610
 H         -1.8176371536       -0.2215463697       -1.3358871642
 H         -1.7035297147        1.3951980564       -0.6356824127
 H         -1.0202803984       -1.2196421056        0.8007967421
 H         -0.9758290124        0.3962757166        1.5433755825
  14
  -16.9711970000000       2.940731821479746E-002 !
 C         -3.8202240518       -1.2059596161        0.2714433114
 C         -3.3435370276        0.2329084988        0.1055064464
 C         -1.9057502175        0.3395745974       -0.4124381953
 C         -0.9093504734       -0.1497766665        0.6175160020
 I          1.1410798949        0.0967715411       -0.0691334538
 H         -3.2696646942       -1.7181400413        1.0563120835
 H         -4.8739979708       -1.2203438907        0.5371627931
 H         -3.6945700699       -1.7579925780       -0.6571822179
 H         -3.4244908344        0.7579588533        1.0596193730
 H         -3.9947744494        0.7405380457       -0.6080421101
 H         -1.8066630748       -0.2427959931       -1.3311417076
 H         -1.6951256651        1.3838604986       -0.6539174102
 H         -1.0199907169       -1.2099935155        0.8231785370
 H         -0.9787930232        0.4162508265        1.5427307713
  14
  -16.9685926600000       1.868889508537369E-003 !
 C         -2.6665097265       -0.9659090060        0.1534016643
 C         -2.9127586898        0.5357051634        0.2370686001
 C         -1.7665405139        1.3915717408       -0.3059261953
 C         -0.4878986140        1.3315725727        0.5123998514
 I          0.8924040912       -0.2529078823       -0.0696085987
 H         -2.3854853119       -1.2534889343       -0.8574902952
 H         -1.8777107059       -1.2783104453        0.8323861182
 H         -3.5705168007       -1.5064126020        0.4233290915
 H         -3.1062100589        0.8143701619        1.2757721956
 H         -3.8078686092        0.7773270919       -0.3398444246
 H         -1.5681819451        1.1228511393       -1.3452157378
 H         -2.0956713091        2.4346882032       -0.2982497879
 H         -0.6942580551        1.1680396802        1.5666735926
 H          0.0953830913        2.2402874692        0.3934373565
  14
  -16.9685922900000       1.868157921551517E-003 !
 C         -2.6665148229       -0.9659151593        0.1529261034
 C         -2.9124171455        0.5357070358        0.2376844417
 C         -1.7665407039        1.3917745494       -0.3057073244
 C         -0.4876138325        1.3319815455        0.5121759578
 I          0.8923341916       -0.2529772040       -0.0696188540
 H         -3.5704113885       -1.5064196422        0.4232299028
 H         -2.3863589834       -1.2529226401       -0.8583689766
 H         -1.8772350197       -1.2789170486        0.8310745570
 H         -3.1050079588        0.8138058585        1.2766982312
 H         -3.8079323013        0.7778331801       -0.3383843380
 H         -1.5685132880        1.1231047781       -1.3450778111
 H         -2.0958014841        2.4348557704       -0.2978551456
 H         -0.6936076842        1.1689313207        1.5666048966
 H          0.0957487225        2.2405690735        0.3925562360
  14
  -16.9685921500000       1.867881179538888E-003 !
 C         -2.6668130410       -0.9659839357        0.1526280351
 C         -2.9124068281        0.5356417335        0.2380286984
 C         -1.7666308319        1.3917677795       -0.3055226015
 C         -0.4874627686        1.3321356693        0.5120013284
 I          0.8923620928       -0.2529803240       -0.0696222201
 H         -1.8773374949       -1.2793124984        0.8304096879
 H         -3.5706928969       -1.5064978109        0.4230006018
 H         -2.3870014709       -1.2526465821       -0.8588559776
 H         -3.1045050786        0.8133689436        1.2772330468
 H         -3.8081939617        0.7779983195       -0.3375230642
 H         -1.5688326524        1.1230909164       -1.3449364472
 H         -2.0959360308        2.4348368214       -0.2976263765
 H         -0.6933171365        1.1695778907        1.5665025245
 H          0.0958889786        2.2406592810        0.3920267020
  14
  -16.9685757800000       1.835803168668410E-003 !
 C         -2.6724908696       -0.9459791178       -0.1478392743
 C         -2.9200231268        0.5523095629       -0.0202638505
 C         -1.7448477385        1.3352719524        0.5688978964
 C         -0.5092731262        1.3840412977       -0.3138751365
 I          0.8939714896       -0.2569078296       -0.0072227457
 H         -2.3378568238       -1.3624998537        0.7998218336
 H         -3.5907326110       -1.4511016233       -0.4375123754
 H         -1.9221709910       -1.1622392782       -0.9035276654
 H         -3.7827358673        0.7116448601        0.6299555357
 H         -3.1678358293        0.9638145146       -1.0017061984
 H         -2.0705201294        2.3697163492        0.7114538999
 H         -1.4949924291        0.9365683497        1.5539087862
 H          0.0819630678        2.2723393621       -0.1100809502
 H         -0.7689375344        1.3550259154       -1.3686794767
  14
  -16.9685754900000       1.835239890244496E-003 !
 C         -2.6729480817       -0.9463795902       -0.1458714826
 C         -2.9201368277        0.5523730447       -0.0234263264
 C         -1.7465794752        1.3369780713        0.5668156027
 C         -0.5087663250        1.3839210499       -0.3129328101
 I          0.8941629407       -0.2570373206       -0.0069542640
 H         -1.9208114377       -1.1648301176       -0.8989626731
 H         -2.3405723380       -1.3598666145        0.8038562528
 H         -3.5903917230       -1.4525697962       -0.4362933393
 H         -3.7845631290        0.7137601204        0.6240520913
 H         -3.1651196999        0.9609507302       -1.0068463993
 H         -2.0726438882        2.3717241469        0.7064142311
 H         -1.4991330288        0.9403209519        1.5532216765
 H          0.0820414771        2.2725050163       -0.1094444945
 H         -0.7653304358        1.3526958796       -1.3683470850
  14
  -16.9685752600000       1.834793275082322E-003 !
 C         -2.6725840928       -0.9461468939       -0.1469783584
 C         -2.9196810532        0.5524089320       -0.0217296757
 C         -1.7448811338        1.3352510889        0.5683019714
 C         -0.5084684365        1.3847670287       -0.3132894011
 I          0.8938567452       -0.2569817540       -0.0071656077
 H         -3.5907266554       -1.4510181526       -0.4373614231
 H         -1.9212977887       -1.1638560091       -0.9012938075
 H         -2.3396222006       -1.3616857561        0.8017156695
 H         -3.7834204105        0.7129989425        0.6268546238
 H         -3.1655764270        0.9629060904       -1.0040770270
 H         -2.0709482743        2.3695780414        0.7106758795
 H         -1.4958596064        0.9365393028        1.5535243331
 H          0.0830457448        2.2725301779       -0.1078929987
 H         -0.7671228287        1.3569992466       -1.3683762178
  14
  -16.9682184400000       1.257778079332415E-003 !
 C         -2.9876769202       -0.8899010987       -0.2230472052
 C         -2.5514253224        0.2907676509        0.6376365942
 C         -1.7825958172        1.3517250836       -0.1682178592
 C         -0.3424953444        1.5255724455        0.2654111448
 I          0.8750668459       -0.2520020016       -0.0562927820
 H         -2.1271892460       -1.3779207683       -0.6749856917
 H         -3.5149120769       -1.6234751255        0.3817802274
 H         -3.6529970146       -0.5578638267       -1.0168693225
 H         -1.9244256080       -0.0776290806        1.4524995207
 H         -3.4353546696        0.7415889352        1.0910166419
 H         -1.8184794687        1.1035040334       -1.2307128461
 H         -2.2573572226        2.3288218413       -0.0472760022
 H         -0.2663953461        1.7293448048        1.3302293139
 H          0.1494818731        2.3150034460       -0.2966165310
  14
  -16.9682059500000       1.241263585858173E-003 !
 C         -2.9835718175       -0.8919070889       -0.2200139493
 C         -2.5541730731        0.2945360820        0.6362571589
 C         -1.7801684051        1.3518484971       -0.1695313857
 C         -0.3416269459        1.5254786945        0.2694331402
 I          0.8745236033       -0.2521915549       -0.0567749826
 H         -3.6418421444       -0.5650918669       -1.0218955364
 H         -2.1194445722       -1.3835004012       -0.6609358038
 H         -3.5162825441       -1.6212504094        0.3851977831
 H         -1.9328473182       -0.0686327247        1.4577957192
 H         -3.4417426807        0.7473480437        1.0805352739
 H         -1.8118326782        1.1001041860       -1.2312881775
 H         -2.2543191226        2.3299198064       -0.0540790062
 H         -0.2697464625        1.7313821652        1.3341278819
 H          0.1533779165        2.3136062069       -0.2916630417
