  16
  -25.5238241700000       0.158363394902741      !
 C         -2.4880731122       -1.1826670201       -0.0132425448
 C         -1.7169127179        0.1011101562        0.0016108807
 O         -2.2672038965        1.1887708201        0.0119970256
 C         -0.2288736604        0.0058471446        0.0003902812
 C          0.5155245607        1.1861198049       -0.0064155251
 C          1.8980683226        1.1057203271       -0.0073040734
 N          2.5573077486       -0.0422367835       -0.0006866235
 C          1.8527345613       -1.1630408759        0.0067597920
 C          0.4668465809       -1.2024231104        0.0069731746
 H         -3.5525404411       -0.9646048442       -0.0216733792
 H         -2.2433985346       -1.7686199443        0.8693790980
 H         -2.2262302631       -1.7609455491       -0.8959135697
 H          0.0036738038        2.1358943887       -0.0105015096
 H          2.5099329754        1.9969690370       -0.0118481576
 H          2.4340544924       -2.0745439186        0.0095906526
 H         -0.0412756801       -2.1514084932        0.0138696334
  16
  -25.5238226400000       0.158107205976968      !
 C         -2.4880195849       -1.1826966652       -0.0060528751
 C         -1.7168966185        0.1011602331        0.0006435300
 O         -2.2671198201        1.1889277654        0.0053030563
 C         -0.2288877108        0.0057511869        0.0005678601
 C          0.5154141479        1.1860639445       -0.0029493363
 C          1.8979516827        1.1057285845       -0.0035781686
 N          2.5572664233       -0.0422002893       -0.0004520298
 C          1.8527995918       -1.1630704320        0.0031041915
 C          0.4668996726       -1.2025132202        0.0035748179
 H         -2.2371721060       -1.7683249310        0.8750074245
 H         -2.2326358649       -1.7614378993       -0.8903686171
 H         -3.5524223641       -0.9643945292       -0.0076842463
 H          0.0035078589        2.1358155323       -0.0052208312
 H          2.5097617839        1.9970209789       -0.0062438651
 H          2.4342148948       -2.0745080418        0.0060710087
 H         -0.0411623773       -2.1515356486        0.0064297175
  16
  -25.5238206400000       0.157772943357431      !
 C         -2.4680185033        1.2239967840       -0.0245104946
 C         -1.7183410212       -0.0722302131        0.0017429083
 O         -2.2866512520       -1.1504236951        0.0237846734
 C         -0.2289320136       -0.0018162465        0.0000059145
 C          0.4871115883        1.1942695223       -0.0264547727
 C          1.8721613484        1.1314902076       -0.0251766632
 N          2.5576229183       -0.0008402800       -0.0003002217
 C          1.8790609340       -1.1372306270        0.0247691460
 C          0.4953729116       -1.1942275350        0.0261930256
 H         -2.2041761916        1.8202854270        0.8455287676
 H         -3.5359332289        1.0235305678       -0.0191660381
 H         -2.2062167683        1.7831399298       -0.9194868638
 H         -0.0049037156        2.1514907443       -0.0473149183
 H          2.4688999781        2.0327598973       -0.0450016184
 H          2.4757552544       -2.0385005229        0.0445517084
 H         -0.0325000471       -2.1349762976        0.0467239848
  16
  -25.5238206000000       0.157766265318215      !
 C         -2.4679905374        1.2241129209       -0.0169123077
 C         -1.7183232740       -0.0722571857        0.0011889402
 O         -2.2866097289       -1.1505768120        0.0164412282
 C         -0.2289347506       -0.0017807747       -0.0000557303
 C          0.4871142740        1.1943762145       -0.0224882684
 C          1.8721597901        1.1315682690       -0.0214123900
 N          2.5576033186       -0.0008538040       -0.0000959775
 C          1.8790244957       -1.1373004723        0.0212293581
 C          0.4953352697       -1.1942843207        0.0222082693
 H         -3.5358838121        1.0236037249       -0.0110610956
 H         -2.2075991931        1.7878533709       -0.9094289596
 H         -2.2028011676        1.8159097548        0.8557781578
 H         -0.0048872472        2.1516597213       -0.0407540543
 H          2.4689083741        2.0328869117       -0.0384452878
 H          2.4757111812       -2.0386406056        0.0380881986
 H         -0.0325523974       -2.1351024922        0.0397223126
  16
  -25.5238202700000       0.157711182278699      !
 C         -2.4679720230        1.2242094253        0.0103695752
 C         -1.7183294308       -0.0722502942       -0.0009325637
 O         -2.2866294846       -1.1506354283       -0.0096925235
 C         -0.2289358944       -0.0018104004       -0.0004501233
 C          0.4871092990        1.1945365545       -0.0086222797
 C          1.8721553640        1.1317412987       -0.0077435523
 N          2.5576049663       -0.0008380142        0.0007712857
 C          1.8790323835       -1.1374754261        0.0083941700
 C          0.4953453980       -1.1944858303        0.0079948743
 H         -2.2137661893        1.8037253296       -0.8738469216
 H         -2.1966427407        1.8004295861        0.8914871042
 H         -3.5358226418        1.0235925050        0.0194423771
 H         -0.0049027815        2.1519560501       -0.0164006409
 H          2.4688997136        2.0331947041       -0.0141297499
 H          2.4757175232       -2.0389389396        0.0154231033
 H         -0.0325327348       -2.1354433765        0.0137941915
  16
  -25.5238192200000       0.157536045976314      !
 C         -2.4882426909       -1.1823806613       -0.0246264564
 C         -1.7168655233        0.1010681442        0.0011882912
 O         -2.2669746162        1.1886292194        0.0239169407
 C         -0.2288633750        0.0056913038        0.0000440158
 C          0.5153944819        1.1859857454       -0.0128613476
 C          1.8979443316        1.1057217191       -0.0128126267
 N          2.5572924182       -0.0421457996       -0.0011526708
 C          1.8528195626       -1.1629749562        0.0120591869
 C          0.4669312898       -1.2024731502        0.0133876787
 H         -2.2188757836       -1.7590966382       -0.9059468067
 H         -3.5524386816       -0.9635695525       -0.0411406358
 H         -2.2517981665       -1.7702146613        0.8591025878
 H          0.0034437732        2.1356490997       -0.0243534987
 H          2.5096984963        1.9969423828       -0.0272247302
 H          2.4342309708       -2.0743077092        0.0260777502
 H         -0.0411296488       -2.1513419026        0.0313346636
  16
  -25.5217542800000       1.771736867386884E-002 !
 C         -2.4847834665       -1.0723735821       -0.5076961547
 C         -1.7149424242        0.0878149618        0.0445743971
 O         -2.2637174853        1.0889656427        0.4705751330
 C         -0.2271078659        0.0021313672        0.0174247336
 C          0.5079316858        1.1589990535       -0.2377076961
 C          1.8905682803        1.0775463123       -0.2591210910
 N          2.5560006036       -0.0430223853       -0.0271304988
 C          1.8583312777       -1.1357850671        0.2392024394
 C          0.4727843762       -1.1757913858        0.2683554969
 H         -2.9387572142       -0.7487168117       -1.4437183733
 H         -3.2977564716       -1.3244557844        0.1694264868
 H         -1.8588482013       -1.9353727703       -0.6988783988
 H         -0.0045407067        2.0906612672       -0.4190318034
 H          2.4977509399        1.9480949525       -0.4644508072
 H          2.4437524749       -2.0233026187        0.4347801134
 H         -0.0358780481       -2.0938028552        0.5124063910
  16
  -25.5217437400000       1.752085815608859E-002 !
 C         -2.4725717704        0.5405399558        1.0864603247
 C         -1.7158271997       -0.0135006434       -0.0814229549
 O         -2.2761826034       -0.5063584909       -1.0448170154
 C         -0.2270656455        0.0130437696       -0.0128931411
 C          0.4918841704        1.0677428573        0.5448889799
 C          1.8765615573        0.9975829143        0.5340972261
 N          2.5563130891       -0.0222086629        0.0343753573
 C          1.8728463583       -1.0213305380       -0.5013742374
 C          0.4892489932       -1.0499125705       -0.5614902014
 H         -2.9284247165       -0.2994905134        1.6095327901
 H         -3.2836689723        1.1705108364        0.7284714811
 H         -1.8375147784        1.0825683467        1.7763315350
 H         -0.0012701740        1.9369685550        0.9478117899
 H          2.4762073001        1.7955159789        0.9493659681
 H          2.4657026891       -1.8304479621       -0.9045217711
 H         -0.0382915401       -1.8745752739       -1.0145404516
  16
  -25.5217428700000       1.750473535967555E-002 !
 C         -2.4739266355        0.5550351828        1.0787168100
 C         -1.7157192208       -0.0147848616       -0.0807934566
 O         -2.2754348563       -0.5210679541       -1.0377344854
 C         -0.2270399636        0.0129701947       -0.0122601566
 C          0.4920586160        1.0700202406        0.5408811491
 C          1.8767199166        0.9998267189        0.5301708333
 N          2.5564596596       -0.0217981457        0.0342599226
 C          1.8729884149       -1.0226604976       -0.4982491430
 C          0.4893714222       -1.0519702650       -0.5570449803
 H         -1.8383003510        1.0958777889        1.7688941468
 H         -2.9426119006       -0.2760296635        1.6046258255
 H         -3.2758911739        1.1909712424        0.7107907199
 H         -0.0006161944        1.9422138024        0.9377658026
 H          2.4763773775        1.7995380911        0.9419719101
 H          2.4657160386       -1.8350440772       -0.8949820619
 H         -0.0384054165       -1.8787477911       -1.0058693362
