! r2scan-3c def2/J RI DEFGRID2 scfconv6 printgap
%output
    printlevel normal
end
%cpcm
    smd true
    smdsolvent "water"
end
* xyz 0 1
C -2.4152752005 -0.0792903961 7.8819e-06
C -1.8415237909 -1.3402231586 1.73474e-05
C -0.4635201729 -1.4689848999 0.0001008299
C 0.3267854683 -0.3351059892 1.44322e-05
C -0.2322116869 0.9426275442 4.26231e-05
C -1.6213762942 1.0506558379 -8.9649e-06
O 0.5081540092 2.0703408157 2.69809e-05
Cl 2.0730491099 -0.4962033769 -3.14254e-05
H -3.4882638492 0.0262390746 -0.0002683867
H -2.4592782342 -2.223181533 -0.0004483077
H -0.0001806088 -2.4426502291 -0.0001576641
H -2.0487527425 2.0400670469 -0.0005280336
H 1.4551049744 1.8501836388 4.2731e-06
*
