  11
  -14.5510189000000       0.111117643148765      !
 C         -1.1784895566       -1.2633629637       -0.1327801614
 C         -0.5376135136       -0.0000024249        0.4068546068
 C         -1.1786534463        1.2632775980       -0.1327819751
 Cl         1.2249417039        0.0000376593       -0.0454498432
 H         -2.2192270146       -1.2946247894        0.1792190678
 H         -1.1356968626       -1.2769883356       -1.2188682260
 H         -0.6719603028       -2.1462085200        0.2478467288
 H         -0.5371300130        0.0000017854        1.4986074563
 H         -1.1357881972        1.2769456751       -1.2188585780
 H         -0.6721887672        2.1461453769        0.2478315883
 H         -2.2194124074        1.2944503158        0.1792010015
  11
  -14.5510189000000       0.111117643148765      !
 C         -1.1785653267       -1.2634428099       -0.1327766909
 C         -0.5376233412       -0.0001306727        0.4069184242
 C         -1.1784787256        1.2632028111       -0.1328043228
 Cl         1.2248972306        0.0001492896       -0.0454637787
 H         -2.2193116859       -1.2947235054        0.1792266800
 H         -1.1357346636       -1.2770919564       -1.2188609690
 H         -0.6720066078       -2.1462653414        0.2478133396
 H         -0.5370674724       -0.0001210173        1.4986796652
 H         -0.6719287201        2.1460214477        0.2478400502
 H         -2.2192330482        1.2945145461        0.1791288290
 H         -1.1356190794        1.2768317305       -1.2188939059
  11
  -14.5510189000000       0.111117643148765      !
 C         -1.1784988580       -1.2633863641       -0.1327822281
 C         -0.5376141516       -0.0000341700        0.4068851339
 C         -1.1785957985        1.2632580598       -0.1327899446
 Cl         1.2249176631        0.0000669337       -0.0454560078
 H         -0.6719438234       -2.1462158988        0.2478308154
 H         -2.2192492880       -1.2946453469        0.1792102270
 H         -1.1356680590       -1.2770201755       -1.2188696678
 H         -0.5370659686       -0.0000169457        1.4986427944
 H         -1.1357547413        1.2769052711       -1.2188697317
 H         -0.6720994417        2.1461177997        0.2478005362
 H         -2.2193451399        1.2944570563        0.1792067240
  11
  -14.5510188900000       0.111116467313721      !
 C         -1.1784652033       -1.2633327053       -0.1327997261
 C         -0.5375975301        0.0000201879        0.4068939486
 C         -1.1786702921        1.2632674597       -0.1327960452
 Cl         1.2249301335        0.0000169454       -0.0454590529
 H         -0.6719015603       -2.1461526415        0.2479132118
 H         -2.2191996560       -1.2945023569        0.1792928381
 H         -1.1356737449       -1.2770151010       -1.2189374115
 H         -0.5370310922        0.0000874258        1.4986497105
 H         -0.6721928617        2.1460992363        0.2478958272
 H         -2.2194027349        1.2944446897        0.1793529778
 H         -1.1358748633        1.2769796309       -1.2189321842
  11
  -14.5510188600000       0.111112939883454      !
 C         -1.1787538674       -1.2635176269       -0.1327487914
 C         -0.5376046389       -0.0002366382        0.4068101867
 C         -1.1784536049        1.2631459767       -0.1327974572
 Cl         1.2249602900        0.0002448802       -0.0454382968
 H         -1.1359494743       -1.2771246119       -1.2188240517
 H         -0.6722403107       -2.1463933718        0.2477846133
 H         -2.2195084851       -1.2947608441        0.1792674617
 H         -0.5369972529       -0.0002293152        1.4985585408
 H         -1.1356061119        1.2767125717       -1.2188900418
 H         -0.6719012350        2.1459815000        0.2477966347
 H         -2.2191919630        1.2944491803        0.1792197450
  11
  -14.5510188600000       0.111112939883454      !
 C         -1.1785501890       -1.2635051003       -0.1327418527
 C         -0.5376376301       -0.0000879449        0.4067514091
 C         -1.1785331327        1.2633070256       -0.1327600345
 Cl         1.2249180784        0.0001183603       -0.0454397930
 H         -0.6720253785       -2.1463332344        0.2478909705
 H         -2.2192716483       -1.2947452619        0.1793141503
 H         -1.1357534218       -1.2771911302       -1.2188273641
 H         -0.5370095945       -0.0000560500        1.4984864485
 H         -2.2192757717        1.2945095519        0.1793035023
 H         -1.1357184238        1.2769168030       -1.2188361303
 H         -0.6719421248        2.1461444028        0.2478057379
  11
  -14.5510187800000       0.111103533950465      !
 C         -1.1771240243       -1.2625661685       -0.1330390170
 C         -0.5376443563        0.0008653984        0.4077752120
 C         -1.1791365875        1.2636498992       -0.1328779906
 Cl         1.2245751861       -0.0007791045       -0.0456228471
 H         -1.1339815238       -1.2759422091       -1.2191315207
 H         -0.6703933985       -2.1451674945        0.2476568973
 H         -2.2178108695       -1.2940890193        0.1786441974
 H         -0.5371958942        0.0005480776        1.4996703525
 H         -2.2199793509        1.2947002302        0.1787992521
 H         -1.1361684507        1.2773980888       -1.2190190251
 H         -0.6731294607        2.1467302204        0.2477027095
  11
  -14.5510187600000       0.111101182591631      !
 C         -1.1777704436       -1.2625960414       -0.1329971944
 C         -0.5375442921        0.0007176879        0.4073617836
 C         -1.1793141452        1.2633797473       -0.1328552938
 Cl         1.2248719984       -0.0005682902       -0.0455337753
 H         -2.2184898020       -1.2944763672        0.1789044177
 H         -1.1352110894       -1.2770527323       -1.2191366029
 H         -0.6703074646       -2.1446321589        0.2484070566
 H         -0.5372964872        0.0006293632        1.4991734314
 H         -2.2201858720        1.2944009183        0.1789862549
 H         -1.1360694662        1.2771018980       -1.2189748208
 H         -0.6729125088        2.1461271320        0.2479877884
  11
  -14.5510187500000       0.111100006930980      !
 C         -1.1794082397       -1.2636905955       -0.1327900232
 C         -0.5375503251       -0.0009041735        0.4071446081
 C         -1.1777889372        1.2624768756       -0.1329681572
 Cl         1.2249245114        0.0008203827       -0.0454988588
 H         -1.1363970326       -1.2773637846       -1.2189076773
 H         -0.6729367803       -2.1464746777        0.2479105754
 H         -2.2202470349       -1.2947720393        0.1791683311
 H         -0.5371927847       -0.0006817560        1.4989299815
 H         -0.6702779146        2.1444721275        0.2485494839
 H         -2.2184777068        1.2942645352        0.1790391923
 H         -1.1353770072        1.2769368127       -1.2191063986
