  9
    -0.439187 !GC
 C          0.0000000000        0.0000000000        0.0000000000
 C          1.5105247845        0.0000000000        0.0000000000
 O          2.1954067559        1.0179709878        0.0000000000
 N          2.0493197185       -1.2277576801        0.0011390821
 H         -0.3885872104        0.5251293685        0.8670871794
 H         -0.3203459944        0.5285460478       -0.8958383434
 H         -0.3804460875       -1.0155621740       -0.0368905303
 H          3.0506857208       -1.3311058445        0.0076115172
 H          1.4642231168       -2.0446776406        0.0118318229
  9
    -0.429846 !GC
 C          0.0000000000        0.0000000000        0.0000000000
 C          1.5105815591        0.0000000000        0.0000000000
 O          2.1954983974        1.0179651683        0.0000000000
 N          2.0494023832       -1.2278617406        0.0001883424
 H         -0.3903171667       -1.0125286733        0.0280577018
 H         -0.3271056701        0.5139029642        0.9031713950
 H         -0.3726783444        0.5399213027       -0.8634840221
 H          3.0508347204       -1.3312385358        0.0092973870
 H          1.4640867650       -2.0448657188        0.0123338571
  9
    -0.365401 !GC
 C          0.0000000000        0.0000000000        0.0000000000
 C          1.5105606156        0.0000000000        0.0000000000
 O          2.1953433090        1.0180414233        0.0000000000
 N          2.0494519568       -1.2277927236        0.0012210787
 H         -0.3818018864        0.4908315900       -0.8888060621
 H         -0.3290620979       -1.0383003581       -0.0096964148
 H         -0.3789391395        0.4711660607        0.9010583221
 H          3.0507025539       -1.3311524189        0.0120233379
 H          1.4638380358       -2.0446547149        0.0123246760
  9
    -0.041324 !GC
 C          0.0000000000        0.0000000000        0.0000000000
 C          1.5096168962        0.0000000000        0.0000000000
 O          2.1808515201        1.0283708478        0.0000000000
 N          2.0715325110       -1.2164921824       -0.0011472698
 H         -0.3776160837       -0.4853545867        0.8965726846
 H         -0.3654548384        1.0233706531       -0.0192082174
 H         -0.3545743330       -0.5329328194       -0.8762291487
 H          3.0755960809       -1.2946346631       -0.0001780984
 H          1.5104290719       -2.0502505262        0.0027956399
  9
    -0.038995 !GC
 C          0.0000000000        0.0000000000        0.0000000000
 C          1.5096317838        0.0000000000        0.0000000000
 O          2.1806306720        1.0285142837        0.0000000000
 N          2.0717135062       -1.2164561476       -0.0000428175
 H         -0.3622367592       -0.4966462551        0.8947107315
 H         -0.3759864422        1.0203678949       -0.0161367804
 H         -0.3593475010       -0.5218398113       -0.8818123810
 H          3.0755101354       -1.2945996495        0.0069501508
 H          1.5097997994       -2.0500390817        0.0032875335
  9
    -0.038669 !GC
 C          0.0000000000        0.0000000000        0.0000000000
 C          1.5096527273        0.0000000000        0.0000000000
 O          2.1807869377        1.0284398474        0.0000000000
 N          2.0716653132       -1.2165254267       -0.0010660893
 H         -0.3708033893        1.0207311362       -0.0260534070
 H         -0.3740718247       -0.5272848634       -0.8747494722
 H         -0.3530532144       -0.4975619639        0.8974048278
 H          3.0756376915       -1.2946795503        0.0042483009
 H          1.5100411560       -2.0502429457        0.0032840701
