  9
  -13.8333026200000       0.244110394963434      !
 C         -1.4465740234       -0.0983880751        0.0000030816
 C          0.0531514849        0.0734417777       -0.0000544106
 O          0.6027193371        1.1716307893        0.0000017370
 N          0.7500455952       -1.0709473027       -0.0000011965
 H         -1.7537685267       -0.6532602161       -0.8821613188
 H         -1.7542330577       -0.6454847250        0.8868983740
 H         -1.9213568629        0.8779787372       -0.0043038665
 H          1.7562037705       -1.0343266555        0.0003306732
 H          0.2872545966       -1.9630951660       -0.0001631640
  9
  -13.8333024800000       0.244074233351844      !
 C         -1.4465994273       -0.0983517241       -0.0000796384
 C          0.0531321191        0.0734109098        0.0001247115
 O          0.6027028828        1.1715966105       -0.0000997084
 N          0.7500895838       -1.0709339738       -0.0000906271
 H         -1.7545573306       -0.6392135206        0.8905370350
 H         -1.9212027496        0.8780154875       -0.0109220853
 H         -1.7534823005       -0.6593104834       -0.8784208536
 H          1.7561819346       -1.0342678210        0.0001748409
 H          0.2873437504       -1.9631197159        0.0009360595
  9
  -13.8333023600000       0.244043241947951      !
 C         -1.4465652496       -0.0983400017       -0.0002158034
 C          0.0531259541        0.0733962583        0.0012361608
 O          0.6026731509        1.1715615046       -0.0003251011
 N          0.7500697516       -1.0709046679       -0.0002587670
 H         -1.9211824559        0.8780145289       -0.0105505153
 H         -1.7520867673       -0.6581839214       -0.8796963724
 H         -1.7555282552       -0.6402974441        0.8894402960
 H          1.7561799236       -1.0342473097       -0.0047233387
 H          0.2873145963       -1.9629970005        0.0021276003
  9
  -13.8327351300000       0.133901649398097      !
 C         -1.4486795362       -0.0915577185       -0.0000251242
 C          0.0517839259        0.0653663500       -0.0003006200
 O          0.5977321933        1.1666937977       -0.0000106697
 N          0.7580373530       -1.0721811154       -0.0000239250
 H         -1.7481623104       -1.1331346198       -0.0186270002
 H         -1.8493312564        0.3927760829        0.8871317712
 H         -1.8538426807        0.4260454155       -0.8660772667
 H          1.7640584531       -1.0215113801        0.0012819696
 H          0.3108696426       -1.9720149771        0.0006739642
  9
  -13.8327349100000       0.133870480338674      !
 C         -1.4486897142       -0.0915323860       -0.0000832992
 C          0.0517690232        0.0653719126        0.0003941756
 O          0.5977087596        1.1666688024       -0.0001226961
 N          0.7580662816       -1.0721900658       -0.0001013971
 H         -1.8511315632        0.4045149279        0.8798084063
 H         -1.8519028739        0.4145974543       -0.8737690486
 H         -1.7481877409       -1.1332820453       -0.0058015682
 H          1.7640904660       -1.0214255451       -0.0008423013
 H          0.3109923951       -1.9720912840        0.0002567241
