  9
        -13.83330262
 C         -1.4465740234       -0.0983880751        0.0000030816
 C          0.0531514849        0.0734417777       -0.0000544106
 O          0.6027193371        1.1716307893        0.0000017370
 N          0.7500455952       -1.0709473027       -0.0000011965
 H         -1.7537685267       -0.6532602161       -0.8821613188
 H         -1.7542330577       -0.6454847250        0.8868983740
 H         -1.9213568629        0.8779787372       -0.0043038665
 H          1.7562037705       -1.0343266555        0.0003306732
 H          0.2872545966       -1.9630951660       -0.0001631640
