  15
  -15.8143816500000       0.111397629620550      !
 C         -0.5874779026       -1.1350757206       -0.1380894587
 C         -1.2721927913        0.2380011365       -0.0071413307
 C         -0.1390809246        1.2672935237        0.1512075912
 C          1.1327546634        0.5225955930       -0.2538900775
 C          0.8724103387       -0.8936973010        0.2479889979
 H         -0.6380043401       -1.4806017729       -1.1713535233
 H         -1.0582367439       -1.8895546389        0.4904241581
 H         -1.8715636919        0.4526158140       -0.8915438433
 H         -1.9379267253        0.2639897796        0.8549245216
 H         -0.3055135656        2.1572198749       -0.4538655432
 H         -0.0609854638        1.5792588132        1.1935611595
 H          1.2349604310        0.5157011005       -1.3402746472
 H          2.0300163031        0.9659298222        0.1752344976
 H          1.5456878971       -1.6286161364       -0.1907922082
 H          0.9851432963       -0.9254234892        1.3327831154
  15
  -15.8143799900000       0.111202119928414      !
 C         -0.6128725725       -1.1395147718        0.0227191391
 C         -1.2544589678        0.2575002798        0.1249987137
 C         -0.1428529597        1.2431347124       -0.2412060701
 C          1.1190596912        0.5473524064        0.2581878096
 C          0.8952381164       -0.9034291811       -0.1647859645
 H         -1.0228912141       -1.7027203370       -0.8146809360
 H         -0.8039855344       -1.7131737630        0.9291957420
 H         -2.1192305986        0.3591036724       -0.5289128364
 H         -1.5854053820        0.4431297442        1.1474176157
 H         -0.0898184362        1.3651367442       -1.3242531622
 H         -0.2925312619        2.2233052049        0.2089891785
 H          2.0302100434        0.9693593641       -0.1632352472
 H          1.1744000712        0.6175033158        1.3456775652
 H          1.1644974323       -1.0200697539       -1.2154881225
 H          1.4957402418       -1.6016724598        0.4163194259
  15
  -15.8143798900000       0.111190353199895      !
 C         -0.6310036266       -1.1094516944       -0.1450203788
 C         -1.2261941791        0.2453099764        0.2390343513
 C         -0.1772856866        1.2338158467       -0.2593357067
 C          1.1392865868        0.5740341314        0.1512669726
 C          0.8906666714       -0.9390112262        0.0139740418
 H         -0.8757312684       -1.3323567085       -1.1843204021
 H         -1.0196119431       -1.9184497666        0.4716524788
 H         -2.2074023374        0.4094789780       -0.2038640723
 H         -1.3183906043        0.3218956079        1.3236091824
 H         -0.2346855459        1.3147664009       -1.3459715138
 H         -0.2953231256        2.2284124632        0.1682046849
 H          1.9749188224        0.9094333705       -0.4610373131
 H          1.3625974069        0.8234292677        1.1893477513
 H          1.4141672983       -1.3444252773       -0.8511929784
 H          1.2534440783       -1.4681547223        0.8945340476
  15
  -15.8143797100000       0.111169176226458      !
 C         -0.6313315223       -1.1077736674        0.1608862262
 C         -1.2265918639        0.2418126527       -0.2423293129
 C         -0.1761507822        1.2381841922        0.2367960818
 C          1.1379575409        0.5706273790       -0.1678273883
 C          0.8918592963       -0.9379121395        0.0124117194
 H         -1.0141421313       -1.9233293489       -0.4507204047
 H         -0.8841425079       -1.3210836340        1.2002170217
 H         -1.3222736563        0.3017796400       -1.3276448894
 H         -2.2064385925        0.4132017471        0.2008150060
 H         -0.2953861914        2.2256764897       -0.2065211234
 H         -0.2294869249        1.3366460862        1.3221706566
 H          1.3506169068        0.7923625503       -1.2144537647
 H          1.9789277498        0.9231392031        0.4273583466
 H          1.2666174068       -1.4933748114       -0.8465917093
 H          1.4064387809       -1.3138646573        0.8961176884
  15
  -15.8143789300000       0.111077455938115      !
 C         -0.6200906201       -1.1358586117        0.0230960770
 C         -1.2466303965        0.2570190492       -0.1639123259
 C         -0.1494487131        1.2408372505        0.2403269614
 C          1.1206998986        0.5521888898       -0.2479275398
 C          0.8979617448       -0.9081756663        0.1483120934
 H         -0.8526982094       -1.7796591225       -0.8244237558
 H         -1.0083553251       -1.6196759039        0.9189065834
 H         -1.5052659760        0.4131125164       -1.2120574390
 H         -2.1519059841        0.3828015113        0.4279455250
 H         -0.2916820684        2.2274250712       -0.1982241332
 H         -0.1194493063        1.3449249134        1.3262186071
 H          1.1926640193        0.6407383241       -1.3330798128
 H          2.0248191131        0.9693276840        0.1931629594
 H          1.4676038852       -1.5926654905       -0.4783721117
 H          1.2145759270       -1.0579562053        1.1811715986
  15
  -15.8143787900000       0.111061001334166      !
 C         -0.5833976323       -1.1074185777       -0.2343715654
 C         -1.2590548633        0.2093652908        0.1500647808
 C         -0.1664847141        1.2835735874       -0.0027508456
 C          1.1612329719        0.5223676732       -0.1654200497
 C          0.8488643347       -0.9143017505        0.2524994078
 H         -0.5897161428       -1.2311352445       -1.3184849900
 H         -1.0707497125       -1.9714826553        0.2147552126
 H         -2.1294228269        0.4192702993       -0.4697217474
 H         -1.5909391354        0.1586431291        1.1878029144
 H         -0.3558368527        1.9150214465       -0.8701136223
 H         -0.1403738247        1.9297866826        0.8740506508
 H          1.4747154838        0.5365346298       -1.2100946442
 H          1.9606279938        0.9597215121        0.4307314585
 H          1.5435212983       -1.6337691342       -0.1784013307
 H          0.8843498728       -1.0061633754        1.3392171866
  15
  -15.8143784800000       0.111024574813897      !
 C         -0.5795212157       -1.1095001438        0.2393488885
 C         -1.2638864959        0.2107792993       -0.1217111698
 C         -0.1619978483        1.2834749214       -0.0249752877
 C          1.1595534765        0.5211229639        0.1672263214
 C          0.8480369693       -0.9120428629       -0.2598167259
 H         -1.0715282742       -1.9689106541       -0.2135405182
 H         -0.5732767201       -1.2463565089        1.3219046652
 H         -1.6459698614        0.1578941976       -1.1417590088
 H         -2.1032728838        0.4264504841        0.5376516107
 H         -0.1329661975        1.8816466755       -0.9353027272
 H         -0.3416856223        1.9620231039        0.8080435107
 H          1.9735626891        0.9578998800       -0.4093279847
 H          1.4476529079        0.5312069358        1.2193531707
 H          0.8744913265       -0.9943442833       -1.3474906591
 H          1.5469572890       -1.6340371979        0.1596096652
  15
  -15.8143778800000       0.110954105807850      !
 C         -0.6081760822       -1.0924156090       -0.2375927455
 C         -1.2322199573        0.2139311491        0.2420266227
 C         -0.1912516841        1.2619137493       -0.1550165910
 C          1.1697398534        0.5535774745       -0.0210353963
 C          0.8562802841       -0.9404329640        0.1717297338
 H         -0.6896813595       -1.1635530245       -1.3233491343
 H         -1.0749380549       -1.9720584888        0.2031545988
 H         -2.2067769128        0.4070821318       -0.2038346949
 H         -1.3470416976        0.1895134014        1.3269249157
 H         -0.3545244466        1.5643226869       -1.1901495314
 H         -0.2516787636        2.1536054733        0.4671245179
 H          1.7718376917        0.7119757546       -0.9152497178
 H          1.7332630383        0.9411670418        0.8268841778
 H          1.5169820218       -1.5773464092       -0.4144649028
 H          0.9696174353       -1.2138815802        1.2216296498
  15
  -15.8143776200000       0.110923583130655      !
 C         -0.6065976358       -1.0880980615        0.2612605212
 C         -1.2338564140        0.2104997414       -0.2346390975
 C         -0.1900025621        1.2634925302        0.1396228852
 C          1.1693406804        0.5547793358       -0.0057945979
 C          0.8554021146       -0.9438630178       -0.1604129437
 H         -1.0767460998       -1.9744643664       -0.1621054348
 H         -0.6810156242       -1.1417097075        1.3485939988
 H         -1.3555228232        0.1695947985       -1.3182298993
 H         -2.2054407094        0.4104888158        0.2146392388
 H         -0.2592418810        2.1498437531       -0.4891296258
 H         -0.3408524357        1.5739876383        1.1742404860
 H          1.7141512795        0.9246828764       -0.8736675730
 H          1.7895647531        0.7342438429        0.8717952294
 H          0.9634208812       -1.2426747003       -1.2039142491
 H          1.5197691484       -1.5659868423        0.4373397054
