  16
    -0.360314 !GC
 C          0.0000000000        0.0000000000        0.0000000000
 C          1.3857696265        0.0000000000        0.0000000000
 C          2.0665342477        1.2015914858        0.0000000000
 C          1.3795355366        2.4114072852        0.0401988686
 C         -0.0129809944        2.4074167287        0.0416677813
 C         -0.6920602905        1.2008565633        0.0064343904
 C          2.2657024609        3.6096510910        0.0434907597
 O          2.6924503856        4.0977800182        1.0898286866
 N          2.5489254255        4.1413337954       -1.1551609017
 H         -0.5388338806       -0.9351264178       -0.0116913763
 H          1.9332602313       -0.9296317456       -0.0085433301
 H          3.1458920715        1.2630707962        0.0050218179
 H         -0.5962385619        3.3136447515       -0.0002669538
 H         -1.7710652144        1.1964106046       -0.0138799289
 H          2.0280604795        3.8910230705       -1.9763762812
 H          3.0934100042        4.9880758230       -1.1917377413
  16
    -0.100738 !GC
 C          0.0000000000        0.0000000000        0.0000000000
 C          1.3861649036        0.0000000000        0.0000000000
 C          2.0787562743        1.1952938866        0.0000000000
 C          1.3925321423        2.4097496053        0.0089334237
 C         -0.0021529289        2.3982228814       -0.0198075008
 C         -0.6921263402        1.2008929491       -0.0203777501
 C          2.1349783783        3.6914118470        0.0182483154
 O          2.4897653924        4.2338186705       -1.0320951240
 N          2.4099194828        4.2477005143        1.2107729961
 H         -0.5401707829       -0.9340307886        0.0001987808
 H          1.9269302646       -0.9340786643       -0.0054599583
 H          3.1579706310        1.1982103197       -0.0315087273
 H         -0.5377724670        3.3344368827       -0.0661461323
 H         -1.7714158565        1.2029382129       -0.0407317604
 H          2.1342644570        3.8181302389        2.0749013356
 H          2.9177186213        5.1163687406        1.2217490323
  16
    -0.080015 !GC
 C          0.0000000000        0.0000000000        0.0000000000
 C          1.3862779481        0.0000000000        0.0000000000
 C          2.0702750250        1.1987471090        0.0000000000
 C          1.3858312641        2.4136022192        0.0323720969
 C         -0.0093236283        2.4040925876        0.0161692001
 C         -0.6920252621        1.2013372164       -0.0077040238
 C          2.2227469463        3.6355798585        0.0499459377
 O          3.3373216213        3.6402904385        0.5799946180
 N          1.7214351603        4.7473276221       -0.5159228076
 H         -0.5395232487       -0.9345188159       -0.0080620947
 H          1.9312573367       -0.9313714620       -0.0092610801
 H          3.1500153686        1.2395696592       -0.0149228022
 H         -0.5768866567        3.3197960821       -0.0394080784
 H         -1.7712219493        1.1988352951       -0.0334681275
 H          0.7645378033        4.8084438935       -0.8111767059
 H          2.2677045632        5.5910427041       -0.4662042083
