  16
  -25.5449862400000       0.502960265479536      !
 C         -2.5819438656        0.0080523558       -0.0178161941
 C         -1.8867913000        1.1863268126        0.2015820040
 C         -0.5031967083        1.1887576104        0.2125175959
 C          0.1962479341        0.0023151384        0.0088364425
 C         -0.5089061478       -1.1814971789       -0.1888656661
 C         -1.8910880352       -1.1775752028       -0.2103137459
 C          1.6851857278       -0.0599335630        0.0247653726
 O          2.2891738762       -1.0626387467        0.4057313295
 N          2.3287477728        1.0354012546       -0.4057440220
 H         -3.6609815396        0.0118719959       -0.0304117156
 H         -2.4250113707        2.1070404755        0.3669439613
 H          0.0246631699        2.1086392092        0.4119931007
 H          0.0495433573       -2.0959010494       -0.3261760972
 H         -2.4284878295       -2.0992867381       -0.3723373830
 H          1.8319816165        1.8205047567       -0.7885533365
 H          3.3356353824        1.0263066168       -0.4293080235
  16
  -25.5449750500000       0.497039734520464      !
 C         -2.5818806429        0.0280705206       -0.0104768197
 C         -1.8809822414        0.9901317661        0.6989083677
 C         -0.4988991930        0.9661401749        0.7127310976
 C          0.1962068898       -0.0101876369        0.0046559623
 C         -0.5133964389       -0.9811618515       -0.6968742112
 C         -1.8968550762       -0.9599604796       -0.6991150151
 C          1.6855733552        0.0107136254        0.0547965853
 O          2.2966994605        0.4384034078        1.0340729155
 N          2.3214015580       -0.4546140289       -1.0307516292
 H         -3.6608917357        0.0438135699       -0.0195854093
 H         -2.4104455191        1.7561913664        1.2442576400
 H          0.0671627327        1.7001236385        1.2673944984
 H          0.0063991773       -1.7728180936       -1.2143229787
 H         -2.4429714046       -1.7187939229       -1.2381620524
 H          1.8192001273       -0.7315285077       -1.8557952615
 H          3.3284318871       -0.4397279676       -1.0443956131
