  15
        -15.77309977
 C          1.1968633125       -1.2562969673        0.0382557569
 C          0.3997564113       -0.0000500259       -0.3206843872
 C          1.1958888835        1.2567961813        0.0382971286
 C         -0.9092958018       -0.0003069658        0.4105965427
 C         -2.0951687906       -0.0002372270       -0.1679989911
 H          0.6358725377       -2.1500763344       -0.2250131405
 H          1.4037649527       -1.2805961488        1.1059760573
 H          2.1429627349       -1.2693438137       -0.4975339821
 H          0.2051357188       -0.0001592642       -1.3983239344
 H          1.4033785407        1.2808819272        1.1059058058
 H          2.1416727762        1.2710260116       -0.4979559894
 H          0.6337366396        2.1500800084       -0.2242370206
 H         -0.8295745220       -0.0003942323        1.4902850869
 H         -3.0100667240       -0.0003182154        0.3999341116
 H         -2.2011911803        0.0000321500       -1.2407582711
