  15
  -15.7730997700000       8.081770596562392E-002 !
 C          1.1968633125       -1.2562969673        0.0382557569
 C          0.3997564113       -0.0000500259       -0.3206843872
 C          1.1958888835        1.2567961813        0.0382971286
 C         -0.9092958018       -0.0003069658        0.4105965427
 C         -2.0951687906       -0.0002372270       -0.1679989911
 H          0.6358725377       -2.1500763344       -0.2250131405
 H          1.4037649527       -1.2805961488        1.1059760573
 H          2.1429627349       -1.2693438137       -0.4975339821
 H          0.2051357188       -0.0001592642       -1.3983239344
 H          1.4033785407        1.2808819272        1.1059058058
 H          2.1416727762        1.2710260116       -0.4979559894
 H          0.6337366396        2.1500800084       -0.2242370206
 H         -0.8295745220       -0.0003942323        1.4902850869
 H         -3.0100667240       -0.0003182154        0.3999341116
 H         -2.2011911803        0.0000321500       -1.2407582711
  15
  -15.7730996700000       8.080915433019335E-002 !
 C          1.1970602807       -1.2562555152        0.0383277508
 C          0.3997534688       -0.0001869438       -0.3207199025
 C          1.1957025023        1.2567937088        0.0382594069
 C         -0.9092930007       -0.0006076934        0.4105662803
 C         -2.0951861619        0.0001184680       -0.1679757870
 H          0.6362883615       -2.1501479972       -0.2250163063
 H          1.4038613086       -1.2805412604        1.1060695712
 H          2.1432096247       -1.2691239204       -0.4973497212
 H          0.2051530241       -0.0003269899       -1.3983682985
 H          0.6334400478        2.1499736051       -0.2243914636
 H          1.4031587770        1.2809790943        1.1058815367
 H          2.1414932903        1.2710841727       -0.4979934965
 H         -0.8295134757       -0.0012840698        1.4902764689
 H         -3.0100555078        0.0000409909        0.4000171660
 H         -2.2012614469        0.0009905078       -1.2407478127
  15
  -15.7730995700000       8.080060359949268E-002 !
 C          1.1968411640       -1.2563158182        0.0382760233
 C          0.3997818020       -0.0000463162       -0.3207201749
 C          1.1958480639        1.2568203690        0.0383076610
 C         -0.9092737650       -0.0003249104        0.4105579483
 C         -2.0951427302       -0.0002141960       -0.1679689484
 H          1.4038269211       -1.2805751977        1.1059951681
 H          2.1428818548       -1.2694192532       -0.4975840771
 H          0.6358036268       -2.1501025676       -0.2249365615
 H          0.2052188420       -0.0001201472       -1.3983771601
 H          2.1418848122        1.2707817707       -0.4975247614
 H          0.6339158649        2.1500807483       -0.2247589912
 H          1.4028073816        1.2811771842        1.1060305372
 H         -0.8295253916       -0.0003285303        1.4903081906
 H         -3.0099797134       -0.0003309609        0.4000711525
 H         -2.2012680777       -0.0001993676       -1.2407834224
  15
  -15.7730995400000       8.079803855684162E-002 !
 C          1.1976575575       -1.2561256758        0.0384919962
 C          0.3996987744       -0.0005744610       -0.3207457982
 C          1.1952321266        1.2567788782        0.0381244079
 C         -0.9093492742       -0.0014325608        0.4105479857
 C         -2.0952153075        0.0011062896       -0.1679579459
 H          1.4043466712       -1.2802677255        1.1062472883
 H          2.1438504863       -1.2685939048       -0.4970828886
 H          0.6373789067       -2.1502966131       -0.2248472776
 H          0.2050483104       -0.0010811644       -1.3983826410
 H          0.6324853185        2.1496003443       -0.2246941232
 H          1.4027178449        1.2813040622        1.1057725369
 H          2.1409916020        1.2715427365       -0.4982113102
 H         -0.8295436886       -0.0035173235        1.4902203514
 H         -3.0100711476        0.0007541478        0.4000727371
 H         -2.2012728604        0.0035050332       -1.2407515533
  15
  -15.7730986900000       8.072539617384972E-002 !
 C          1.1963669137       -1.2563100442        0.0382015366
 C          0.3997679484        0.0002733945       -0.3207012942
 C          1.1963389015        1.2568541664        0.0383547017
 C         -0.9092766691        0.0000281599        0.4105882595
 C         -2.0951404207       -0.0008613172       -0.1679959874
 H          2.1424116932       -1.2699349305       -0.4976459270
 H          0.6347190860       -2.1497930781       -0.2248193335
 H          1.4033714677       -1.2806127226        1.1059254349
 H          0.2050201299        0.0003933453       -1.3983130617
 H          0.6348062634        2.1504173785       -0.2245913466
 H          1.4036102796        1.2810366143        1.1060506447
 H          2.1422889240        1.2705597760       -0.4976932714
 H         -0.8295330282        0.0005210302        1.4902179905
 H         -3.0099617115       -0.0008729423        0.4000124462
 H         -2.2011924750       -0.0015280956       -1.2406404284
  15
  -15.7730986600000       8.072283351868398E-002 !
 C          1.1966363057       -1.2563717936        0.0382581068
 C          0.3998209057        0.0000508525       -0.3206688072
 C          1.1959386299        1.2569155997        0.0382932149
 C         -0.9091941804       -0.0003018316        0.4105851201
 C         -2.0950865233       -0.0003601626       -0.1679919802
 H          2.1423314216       -1.2700072533       -0.4981730571
 H          0.6348902920       -2.1499169181       -0.2242671220
 H          1.4042406339       -1.2803421498        1.1058527209
 H          0.2051614834        0.0000174124       -1.3982970155
 H          2.1416089581        1.2711658448       -0.4981764798
 H          0.6336506045        2.1501413991       -0.2241501537
 H          1.4035483509        1.2809364154        1.1058894179
 H         -0.8294493433       -0.0004853961        1.4902920092
 H         -3.0099716909       -0.0005331226        0.3999685730
 H         -2.2011667405       -0.0001738523       -1.2407746202
  15
  -15.7730986600000       8.072283351868398E-002 !
 C          1.1967588907       -1.2563674696        0.0382976415
 C          0.3998130824       -0.0000362843       -0.3207023092
 C          1.1957981206        1.2569194753        0.0382780740
 C         -0.9091843104       -0.0004517883        0.4105726299
 C         -2.0950774112       -0.0001496049       -0.1679813006
 H          0.6351179624       -2.1500071470       -0.2241269128
 H          1.4044104106       -1.2802498447        1.1058890070
 H          2.1424477232       -1.2699978016       -0.4981408199
 H          0.2051367099       -0.0001338131       -1.3983337882
 H          2.1414778363        1.2712191688       -0.4981480994
 H          0.6334761818        2.1500921720       -0.2242379692
 H          1.4034144630        1.2810566479        1.1058621842
 H         -0.8294322196       -0.0009344445        1.4902867303
 H         -3.0099561629       -0.0003637799        0.3999809902
 H         -2.2011683179        0.0003397173       -1.2407369379
  15
  -15.7730986500000       8.072197931827264E-002 !
 C          1.1966916090       -1.2564262677        0.0382716501
 C          0.3998367468       -0.0000200197       -0.3206684683
 C          1.1957978283        1.2569643009        0.0382727157
 C         -0.9091717485       -0.0004020532        0.4105886633
 C         -2.0950432298       -0.0002165527       -0.1679944653
 H          2.1424059543       -1.2700890715       -0.4981162085
 H          0.6350406634       -2.1500526927       -0.2241825123
 H          1.4042898745       -1.2803306509        1.1058598365
 H          0.2052105288       -0.0001049712       -1.3983049641
 H          1.4034243553        1.2810473850        1.1058579366
 H          2.1414802783        1.2712252096       -0.4981470867
 H          0.6335260084        2.1501929832       -0.2242100585
 H         -0.8294467040       -0.0009952594        1.4902924012
 H         -3.0099297946       -0.0001029234        0.3999553233
 H         -2.2011103435        0.0004086624       -1.2407741533
  15
  -15.7730986400000       8.072112512705212E-002 !
 C          1.1967715186       -1.2563948568        0.0382899052
 C          0.3998198548       -0.0000459984       -0.3206744390
 C          1.1957695630        1.2569463263        0.0382596117
 C         -0.9091982845       -0.0004782732        0.4105813512
 C         -2.0950596575       -0.0001156363       -0.1679891837
 H          1.4043936708       -1.2803387461        1.1058744729
 H          2.1424795285       -1.2700138226       -0.4981048593
 H          0.6351753304       -2.1500391379       -0.2241833764
 H          0.2051744177       -0.0000895272       -1.3983086715
 H          1.4033791637        1.2810194544        1.1058402842
 H          2.1414603378        1.2712667111       -0.4981432044
 H          0.6334684859        2.1501570114       -0.2242007611
 H         -0.8294743982       -0.0009367335        1.4902854797
 H         -3.0099427089       -0.0004238755        0.3999671437
 H         -2.2011251586        0.0004525066       -1.2407620298
  15
  -15.7714581900000       1.422618935735599E-002 !
 C          1.2808069845       -1.2134937182        0.2446234318
 C          0.4816370143       -0.0975783521       -0.4379873576
 C          0.9109106516        1.2657030923        0.0951220870
 C         -0.9859890814       -0.3768558573       -0.2767980116
 C         -1.8847905223        0.3948525011        0.3049878487
 H          2.3466479871       -1.0648396571        0.0897645989
 H          1.0052299024       -2.1858047166       -0.1570096786
 H          1.0826656555       -1.2137634538        1.3143284679
 H          0.7023445722       -0.1347297477       -1.5130710295
 H          0.3638208578        2.0627609293       -0.4020651189
 H          0.7320889409        1.3299602568        1.1658229650
 H          1.9730791064        1.4151330783       -0.0839746983
 H         -1.2939133727       -1.3316548351       -0.6868167535
 H         -2.9175602676        0.0970984903        0.3756957485
 H         -1.6418653224        1.3520114818        0.7320730692
  15
  -15.7714581900000       1.422618935735599E-002 !
 C          1.2807140498       -1.2135132888        0.2446425557
 C          0.4816493457       -0.0975178597       -0.4380150576
 C          0.9109640662        1.2657030979        0.0951900765
 C         -0.9860240760       -0.3767172050       -0.2771100584
 C         -1.8847326385        0.3947055886        0.3051806194
 H          1.0823432279       -1.2138505078        1.3142963315
 H          2.3466164875       -1.0649724778        0.0900707461
 H          1.0051720506       -2.1857944204       -0.1570725874
 H          0.7025329998       -0.1345842873       -1.5130579251
 H          0.7322002879        1.3298047113        1.1659058204
 H          1.9731182654        1.4151881848       -0.0839549963
 H          0.3638259037        2.0627961502       -0.4018816208
 H         -1.2940082883       -1.3313532341       -0.6875152637
 H         -2.9175470680        0.0970352698        0.3756399332
 H         -1.6416645760        1.3515131727        0.7330304634
  15
  -15.7714581800000       1.422603881733812E-002 !
 C          1.2810174161       -1.2134610559        0.2446049947
 C          0.4816001576       -0.0976719384       -0.4379791804
 C          0.9108133993        1.2656379309        0.0950763483
 C         -0.9860062829       -0.3769351031       -0.2765511892
 C         -1.8848615552        0.3950345353        0.3048364180
 H          1.0054191165       -2.1857925159       -0.1569619603
 H          1.0830805134       -1.2137287030        1.3143717516
 H          2.3468354816       -1.0647782170        0.0895265776
 H          0.7021208897       -0.1347523142       -1.5131162726
 H          0.7320104268        1.3299320938        1.1657785770
 H          1.9729786924        1.4150405577       -0.0840191324
 H          0.3637587833        2.0627005672       -0.4021568745
 H         -1.2938645303       -1.3319702670       -0.6860705150
 H         -2.9176200077        0.0973121804        0.3756295043
 H         -1.6420393659        1.3524860563        0.7312965013
  15
  -15.7714581700000       1.422588827893999E-002 !
 C          1.2808187017       -1.2135482254        0.2446122369
 C          0.4816505717       -0.0975897017       -0.4379497335
 C          0.9108711851        1.2657514823        0.0950913150
 C         -0.9859627907       -0.3769052825       -0.2766881660
 C         -1.8847961391        0.3948985507        0.3049211598
 H          2.3466538568       -1.0648794073        0.0896786901
 H          1.0052328146       -2.1858816747       -0.1569955277
 H          1.0827151395       -1.2137674242        1.3143412089
 H          0.7023153809       -0.1347640240       -1.5130470703
 H          1.9730319779        1.4151799344       -0.0840035198
 H          0.3638122308        2.0628445609       -0.4020859940
 H          0.7320953122        1.3300198644        1.1657945828
 H         -1.2939299610       -1.3316329322       -0.6868749835
 H         -2.9175419604        0.0971213810        0.3757113830
 H         -1.6419239745        1.3521799090        0.7317662902
  15
  -15.7714581600000       1.422573774210810E-002 !
 C          1.2807939814       -1.2134535985        0.2446257084
 C          0.4815993934       -0.0975700289       -0.4379910594
 C          0.9109633293        1.2657001683        0.0950979558
 C         -0.9860004175       -0.3769277924       -0.2766765036
 C         -1.8847885928        0.3948669172        0.3049183644
 H          1.0827675601       -1.2136995071        1.3143723882
 H          2.3466087597       -1.0647779875        0.0895995514
 H          1.0051822036       -2.1857614875       -0.1569973849
 H          0.7022424463       -0.1347682527       -1.5130984899
 H          1.9731220858        1.4151317996       -0.0840709358
 H          0.3638467236        2.0627623804       -0.4020571644
 H          0.7322288779        1.3299590344        1.1658147060
 H         -1.2940085285       -1.3316389809       -0.6868663511
 H         -2.9175093222        0.0970302948        0.3758294155
 H         -1.6418551292        1.3520775286        0.7319064485
  15
  -15.7714581400000       1.422543667324994E-002 !
 C          1.2806697066       -1.2134170100        0.2446803035
 C          0.4816331033       -0.0975095589       -0.4380751812
 C          0.9110630548        1.2656480127        0.0952278619
 C         -0.9860334004       -0.3767360884       -0.2771469479
 C         -1.8847552980        0.3946524982        0.3052252812
 H          1.0823721245       -1.2137109821        1.3143590438
 H          2.3465469271       -1.0648570383        0.0899686587
 H          1.0050457857       -2.1856688942       -0.1570386742
 H          0.7024968629       -0.1346455625       -1.5131233663
 H          0.3639498677        2.0626976395       -0.4019230552
 H          0.7322122093        1.3298650603        1.1659301152
 H          1.9732372466        1.4151288322       -0.0838482516
 H         -1.2940090484       -1.3313253397       -0.6876159553
 H         -2.9175291589        0.0968792680        0.3758940025
 H         -1.6418100161        1.3516874464        0.7325821461
  15
  -15.7714581100000       1.422498508189625E-002 !
 C          1.2812695871       -1.2132878057        0.2445432197
 C          0.4814374480       -0.0977257412       -0.4378521528
 C          0.9109701221        1.2655833240        0.0948949209
 C         -0.9860620361       -0.3772515749       -0.2759775170
 C         -1.8850852588        0.3952865839        0.3044345849
 H          1.0055881685       -2.1856510327       -0.1568925147
 H          1.0837684581       -1.2135020612        1.3143909263
 H          2.3470043143       -1.0644681212        0.0889838970
 H          0.7014639271       -0.1349442360       -1.5130644943
 H          0.3638277351        2.0624722570       -0.4025721801
 H          0.7321311970        1.3300675219        1.1655899868
 H          1.9731873210        1.4148142838       -0.0842743105
 H         -1.2937469459       -1.3328987266       -0.6843254621
 H         -2.9177187799        0.0971359666        0.3760551066
 H         -1.6424289150        1.3534186122        0.7297238998
  15
  -15.7714581100000       1.422498508189625E-002 !
 C          1.2811372137       -1.2133649100        0.2445844308
 C          0.4815196363       -0.0977054601       -0.4379615269
 C          0.9108736970        1.2655836913        0.0950174850
 C         -0.9860533306       -0.3770417954       -0.2763221490
 C         -1.8849398043        0.3951340779        0.3046826469
 H          2.3469361645       -1.0646761944        0.0894423920
 H          1.0055511989       -2.1857241262       -0.1569013177
 H          1.0833421910       -1.2136111121        1.3143586475
 H          0.7019226922       -0.1348696188       -1.5131228122
 H          0.7320311520        1.3300126787        1.1657165574
 H          1.9730494643        1.4149370897       -0.0841100363
 H          0.3638400057        2.0625610219       -0.4023519647
 H         -1.2938434863       -1.3323620683       -0.6852449195
 H         -2.9176761792        0.0973465999        0.3756454802
 H         -1.6421666879        1.3528204516        0.7306853166
  15
  -15.7714581000000       1.422483455464864E-002 !
 C          1.2815049483       -1.2134020332        0.2444770086
 C          0.4814486029       -0.0978597784       -0.4377780791
 C          0.9107299909        1.2656239852        0.0947992173
 C         -0.9860361605       -0.3773361727       -0.2755876512
 C         -1.8851305502        0.3955400671        0.3041811502
 H          1.0058751905       -2.1858825292       -0.1566920539
 H          1.0842439172       -1.2135360068        1.3143456266
 H          2.3472166648       -1.0646118833        0.0888011596
 H          0.7013930273       -0.1350862025       -1.5130339899
 H          1.9729044426        1.4149360278       -0.0842838611
 H          0.3637902122        2.0625523698       -0.4027342178
 H          0.7318310079        1.3303053578        1.1654596899
 H         -1.2936034229       -1.3333531660       -0.6830515477
 H         -2.9177682657        0.0975642311        0.3756882655
 H         -1.6426510172        1.3540176340        0.7285367789
  15
  -15.7714579600000       1.422272734021107E-002 !
 C          0.9116477867       -1.2652964026        0.0953557303
 C          0.4816379998        0.0976292447       -0.4380606879
 C          1.2799807971        1.2141233279        0.2446213949
 C         -0.9861923562        0.3761837748       -0.2773552181
 C         -1.8845037512       -0.3953886760        0.3053347257
 H          1.9738740231       -1.4143401203       -0.0837627304
 H          0.3648444982       -2.0627015305       -0.4015850197
 H          0.7329356589       -1.3293126887        1.1660803020
 H          0.7026458180        0.1346669462       -1.5130849773
 H          1.0040101449        2.1861966762       -0.1572947197
 H          1.0814982050        1.2145198907        1.3142714615
 H          2.3459596801        1.0660918289        0.0901535607
 H         -1.2947432666        1.3302559296       -0.6886476430
 H         -2.9174560967       -0.0982151526        0.3756830666
 H         -1.6409761442       -1.3518909784        0.7335545427
  15
  -15.7714579400000       1.422242633506407E-002 !
 C          0.9115045481       -1.2652655158        0.0951296475
 C          0.4815405480        0.0978148172       -0.4379106765
 C          1.2804042913        1.2140727014        0.2445217760
 C         -0.9861790941        0.3765272030       -0.2765133624
 C         -1.8847217535       -0.3958525990        0.3047739905
 H          0.3648238644       -2.0625917700       -0.4020839202
 H          0.7327006550       -1.3295613532        1.1658297201
 H          1.9737471044       -1.4141775374       -0.0839532474
 H          0.7020635117        0.1349485624       -1.5130365048
 H          1.0824000239        1.2143680196        1.3142680002
 H          2.3462984193        1.0658432677        0.0895087129
 H          1.0043716831        2.1862305252       -0.1571754226
 H         -1.2944853936        1.3313634528       -0.6861976766
 H         -2.9176099677       -0.0985912691        0.3755130401
 H         -1.6414559843       -1.3531013502        0.7314388233
  15
  -15.7714579300000       1.422227583489283E-002 !
 C          0.9114155984       -1.2652454276        0.0950866303
 C          0.4815274791        0.0978837542       -0.4378925692
 C          1.2805268449        1.2140648137        0.2444992534
 C         -0.9861745669        0.3765881068       -0.2763363436
 C         -1.8847518251       -0.3959855743        0.3046575425
 H          0.7325697574       -1.3296737416        1.1657773761
 H          1.9736663370       -1.4140964627       -0.0839804433
 H          0.3647773158       -2.0625326167       -0.4022386134
 H          0.7019301102        0.1350772956       -1.5130464834
 H          2.3463939828        1.0657747047        0.0893591474
 H          1.0044904007        2.1862685179       -0.1570991872
 H          1.0826586863        1.2142867194        1.3142701881
 H         -1.2943732870        1.3317463915       -0.6853444554
 H         -2.9176200021       -0.0986834123        0.3755543117
 H         -1.6415796916       -1.3535448793        0.7307031273
  15
  -15.7714579000000       1.422182434388105E-002 !
 C          0.9115769722       -1.2651880591        0.0952892143
 C          0.4815644477        0.0977585715       -0.4380715418
 C          1.2802293747        1.2140032159        0.2446006428
 C         -0.9862178942        0.3763291201       -0.2769900976
 C         -1.8846011398       -0.3956247931        0.3051078534
 H          0.7328376107       -1.3294462355        1.1660091743
 H          1.9738088918       -1.4141403838       -0.0838326553
 H          0.3648495687       -2.0625248388       -0.4018363670
 H          0.7022909301        0.1348889576       -1.5131651548
 H          1.0042117180        2.1860887386       -0.1572708212
 H          1.0820170748        1.2143389033        1.3143335274
 H          2.3461527162        1.0658346832        0.0897682785
 H         -1.2946008032        1.3309399095       -0.6871304045
 H         -2.9174920251       -0.0983268800        0.3758748580
 H         -1.6412601448       -1.3527012434        0.7321392617
  15
  -15.7714578900000       1.422167385008002E-002 !
 C          0.9116750034       -1.2652786718        0.0955573795
 C          0.4817436580        0.0975217936       -0.4382122109
 C          1.2796955021        1.2141609094        0.2447113616
 C         -0.9861793935        0.3758870904       -0.2780019144
 C         -1.8843342970       -0.3950618038        0.3057837910
 H          0.3647980409       -2.0627375647       -0.4012262447
 H          0.7330502583       -1.3291043561        1.1663152596
 H          1.9738795660       -1.4143692111       -0.0836378635
 H          0.7031827725        0.1344890094       -1.5131532416
 H          1.0037906063        2.1861447420       -0.1575043533
 H          1.0806389067        1.2146922120        1.3142730457
 H          2.3457984765        1.0661897021        0.0908166686
 H         -1.2949197724        1.3292760005       -0.6906786201
 H         -2.9173614037       -0.0980831955        0.3756234008
 H         -1.6406223759       -1.3509649668        0.7352254229
  15
  -15.7714578600000       1.422122237817845E-002 !
 C          0.9115675227       -1.2652252744        0.0952252459
 C          0.4815674217        0.0977631202       -0.4380266039
 C          1.2802698752        1.2140252793        0.2445795227
 C         -0.9861831431        0.3764315218       -0.2767830562
 C         -1.8846688417       -0.3957067979        0.3049661331
 H          1.9737888144       -1.4142021418       -0.0839002348
 H          0.3648381998       -2.0625800570       -0.4018626030
 H          0.7328423930       -1.3294471663        1.1659396354
 H          0.7022723572        0.1348770407       -1.5131251202
 H          2.3461957194        1.0658388780        0.0897233213
 H          1.0042426633        2.1861252125       -0.1572512851
 H          1.0820814453        1.2143826294        1.3143058955
 H         -1.2945972944        1.3309451180       -0.6871470042
 H         -2.9175873571       -0.0985072426        0.3755477180
 H         -1.6412742033       -1.3525973634        0.7323594377
  15
  -15.7714577900000       1.422016899949454E-002 !
 C          0.9111769883       -1.2650698104        0.0950616925
 C          0.4814643755        0.0980009733       -0.4380083129
 C          1.2806462808        1.2139146752        0.2445200708
 C         -0.9861128362        0.3767211298       -0.2759232881
 C         -1.8846168505       -0.3962201800        0.3044467357
 H          0.3644536836       -2.0621483049       -0.4024876463
 H          0.7321902175       -1.3296036254        1.1657853941
 H          1.9734317398       -1.4138930687       -0.0841596409
 H          0.7015392754        0.1350762897       -1.5132636387
 H          2.3463511895        1.0653535629        0.0886612712
 H          1.0046419894        2.1861127376       -0.1572228398
 H          1.0833362732        1.2140694543        1.3145036594
 H         -1.2943707923        1.3319976339       -0.6845265534
 H         -2.9173288170       -0.0985753754        0.3762738430
 H         -1.6415030697       -1.3542567192        0.7294094151
  15
  -15.7714577300000       1.421926616559275E-002 !
 C          0.9116806747       -1.2652835230        0.0955980091
 C          0.4817593154        0.0974914586       -0.4382525914
 C          1.2796050248        1.2141667143        0.2447355287
 C         -0.9861671755        0.3758423945       -0.2781392453
 C         -1.8842670091       -0.3949900146        0.3058792852
 H          0.7330798930       -1.3290190316        1.1663630167
 H          1.9738850098       -1.4143774287       -0.0835648506
 H          0.3648156493       -2.0628103318       -0.4010935615
 H          0.7032095565        0.1343924267       -1.5131958918
 H          1.0806829792        1.2146242926        1.3143226285
 H          2.3456808148        1.0663075585        0.0906580876
 H          1.0035417019        2.1861252144       -0.1574123648
 H         -1.2949283767        1.3292162608       -0.6908738118
 H         -2.9173986412       -0.0981660380        0.3753741556
 H         -1.6404569302       -1.3507332878        0.7356836524
  15
  -15.7714574300000       1.421475285579369E-002 !
 C          0.9120630537       -1.2648809063        0.0960501602
 C          0.4816204607        0.0973924804       -0.4386404420
 C          1.2794779635        1.2137923107        0.2448805443
 C         -0.9865907322        0.3750811902       -0.2798634389
 C         -1.8840272963       -0.3943608916        0.3069622261
 H          1.9742834029       -1.4142938040       -0.0835518413
 H          0.3643444406       -2.0622231041       -0.4002805046
 H          0.7340617232       -1.3279509565        1.1670796913
 H          0.7035354124        0.1343149472       -1.5134638547
 H          1.0796403420        1.2146444600        1.3142600482
 H          2.3458216755        1.0657871945        0.0918346494
 H          1.0033665180        2.1855842257       -0.1577720183
 H         -1.2957784562        1.3275921161       -0.6943285815
 H         -2.9163058913       -0.0955806722        0.3804443508
 H         -1.6400545917       -1.3498976298        0.7371861269
  15
  -15.7701672000000       3.629030847490037E-003 !
 C          1.3856669931       -1.2052290493        0.1662476613
 C          0.4307704770       -0.1387465087       -0.3696634893
 C          0.9295407813        1.2558666062        0.0153782544
 C         -0.9690282553       -0.3929374551        0.1268664030
 C         -1.9852153425        0.4445902769        0.0319572407
 H          1.4255195784       -1.1629935708        1.2528708460
 H          2.3899074012       -1.0469559690       -0.2201191898
 H          1.0571481423       -2.1987819545       -0.1305182049
 H          0.4183441873       -0.2069695474       -1.4655055110
 H          0.9060536441        1.3770351034        1.0962154439
 H          1.9520751204        1.3952103089       -0.3274905772
 H          0.3118950328        2.0291228131       -0.4316586136
 H         -1.1241442513       -1.3598490572        0.5883253152
 H         -2.9616512392        0.1924465955        0.4096460541
 H         -1.8934342097        1.4161506436       -0.4236490736
  15
  -15.7701633600000       3.614314316404597E-003 !
 C          0.9278336372       -1.2557710497        0.0170155743
 C          0.4323425791        0.1389228143       -0.3715553379
 C          1.3845549420        1.2052877477        0.1696650010
 C         -0.9706701824        0.3966145424        0.1141018765
 C         -1.9820748627       -0.4488309282        0.0407929193
 H          0.8939870496       -1.3780403665        1.0973792785
 H          1.9537502389       -1.3938005773       -0.3160660476
 H          0.3156365436       -2.0293720446       -0.4369386485
 H          0.4274217623        0.2070028961       -1.4675706708
 H          2.3910185181        1.0454391960       -0.2100325326
 H          1.0593654343        2.1991003840       -0.1298284839
 H          1.4171625583        1.1638535699        1.2565053478
 H         -1.1334539250        1.3762945958        0.5449711881
 H         -2.9621029568       -0.1886307734        0.4029502804
 H         -1.8840682373       -1.4334857498       -0.3841250393
  15
  -15.7701632500000       3.613893629524348E-003 !
 C          1.3849662659       -1.2045038167        0.1701992757
 C          0.4326273987       -0.1386746058       -0.3719300058
 C          0.9269834887        1.2561846632        0.0172831701
 C         -0.9707071655       -0.3976838946        0.1120857280
 C         -1.9818342723        0.4483769226        0.0422090497
 H          2.3917131694       -1.0439099091       -0.2084294815
 H          1.0607525153       -2.1984668120       -0.1298503558
 H          1.4164216024       -1.1632996817        1.2570838817
 H          0.4289797094       -0.2066532916       -1.4679816093
 H          0.3152649635        2.0294944082       -0.4377943849
 H          0.8912811334        1.3784979118        1.0975831792
 H          1.9533988050        1.3945882005       -0.3141390992
 H         -1.1342259944       -1.3795060339        0.5377996012
 H         -2.9621365555        0.1866594043        0.4026342302
 H         -1.8833234284        1.4351594220       -0.3776019999
  15
  -15.7700316100000       3.143965778829632E-003 !
 C          1.0398581601       -1.2559437440        0.2257984017
 C          0.5215336653       -0.0024501869       -0.4846994580
 C          1.0278177003        1.2589611408        0.2195257918
 C         -0.9850296161       -0.0153504083       -0.5551306916
 C         -1.7882556255        0.0139580815        0.4923955305
 H          0.6872519251       -2.1520835976       -0.2796932219
 H          0.6897377556       -1.2819140477        1.2542917003
 H          2.1272449739       -1.2640764523        0.2292776343
 H          0.9139600369       -0.0028945646       -1.5070468192
 H          2.1150621262        1.2804389687        0.2156196118
 H          0.6608931957        2.1491156442       -0.2863541319
 H          0.6854469642        1.2842144763        1.2505020265
 H         -1.4116437507       -0.0564274023       -1.5487848523
 H         -2.8595399776       -0.0003343938        0.3868802688
 H         -1.4149462128        0.0537935549        1.5020671558
  15
  -15.7700311700000       3.142502271079604E-003 !
 C          1.0327801732       -1.2574819397        0.2221636989
 C          0.5215989317        0.0006466599       -0.4847487931
 C          1.0346513775        1.2574956515        0.2232751496
 C         -0.9850224846        0.0028477665       -0.5554531227
 C         -1.7880547780       -0.0033882988        0.4926181242
 H          0.6871495604       -1.2829430935        1.2521129573
 H          2.1201118838       -1.2734211596        0.2213546015
 H          0.6717692955       -2.1501485993       -0.2835728742
 H          0.9142750916        0.0007569409       -1.5069963909
 H          0.6868365101        1.2834032492        1.2525078882
 H          2.1220209944        1.2708882026        0.2245864832
 H          0.6767082677        2.1511525340       -0.2829035753
 H         -1.4118719084        0.0111173788       -1.5498140725
 H         -2.8594169940       -0.0008993533        0.3869440586
 H         -1.4144604658       -0.0113341188        1.5029516126
