  12
        -25.90418575
 C         -1.9872311627       -0.2867791727       -0.2414747649
 C         -0.8879543514       -0.9870751507        0.5688179681
 O          0.3457222642       -0.9776919616       -0.1527323671
 N          1.1866452990        0.0724478039        0.0344253471
 O          2.1433158640        0.0480558149       -0.6752149812
 O          0.9160631193        0.8725257013        0.8735983620
 O         -1.7393888740        1.0862356702       -0.4260975167
 H         -2.9476682938       -0.4567579299        0.2551591399
 H         -2.0186833578       -0.7163684432       -1.2449278887
 H         -1.1244805570       -2.0420753091        0.6963925961
 H         -0.7415492365       -0.5036534071        1.5388179365
 H         -1.8370779353        1.5558130469        0.4144764917
  12
        -25.90408464
 C         -1.7930949364       -0.0489214599       -0.5133767244
 C         -0.8677481661       -1.0047078144        0.2534971150
 O          0.2726310015       -0.3317258114        0.7906375560
 N          1.2715744771       -0.0080856324       -0.0636604851
 O          2.1767534332        0.5730524285        0.4491083559
 O          1.1609022379       -0.3345326723       -1.2054679350
 O         -2.1871269599        1.0622121890        0.2490134558
 H         -2.6574436628       -0.6244024983       -0.8631079735
 H         -1.2716538313        0.3574899522       -1.3833554295
 H         -0.5446181542       -1.8110954931       -0.4096059685
 H         -1.3552717005       -1.4082933886        1.1404285122
 H         -2.7246811525        0.7724459730        1.0002579184
  12
        -25.90376214
 C         -1.8270633994        0.4073775788        0.2582382915
 C         -0.8736336190       -0.7742447718        0.4686403376
 O          0.2866123249       -0.6626432919       -0.3594176440
 N          1.3503106611        0.0320078042        0.1279504454
 O          2.2719568305        0.0808593277       -0.6244085651
 O          1.2608684138        0.5036704699        1.2181151986
 O         -2.4923361151        0.3541148540       -0.9774225721
 H         -1.2774075387        1.3513027822        0.3699927984
 H         -2.6069180835        0.3657804613        1.0196647396
 H         -1.3452254313       -1.7031963487        0.1486132329
 H         -0.5718245115       -0.8322896866        1.5165337961
 H         -1.8467680106        0.3641733544       -1.6983915673
  12
        -25.90352455
 C         -1.6745747847        0.0708834722        0.4529831954
 C         -0.7832595854       -0.2356529890       -0.7654545656
 O          0.4463750593       -0.8433536452       -0.3814304241
 N          1.4278958356       -0.0256483569        0.0896463766
 O          2.4248765092       -0.5982973897        0.3960836207
 O          1.2015812326        1.1427129268        0.1418065575
 O         -2.9845322555        0.3826768403        0.0625393010
 H         -1.2348220997        0.8807404689        1.0479462150
 H         -1.7475662653       -0.8266058929        1.0723430751
 H         -0.5790567220        0.6751505656       -1.3366421461
 H         -1.2664638062       -0.9799714460       -1.3987282633
 H         -3.0017921910        1.2413022597       -0.3834831787
  12
        -25.90334745
 C         -2.1259033691       -0.5691012591       -0.1330008802
 C         -0.6527000578       -0.6897402422       -0.5275598757
 O          0.0903901864        0.1420547492        0.3716902741
 N          1.4405712004        0.1081539087        0.2681817651
 O          1.9137052728       -0.6087471571       -0.5583229692
 O          2.0036979940        0.8198705156        1.0394598639
 O         -2.6801082253        0.6715405691       -0.4847310669
 H         -2.2244698981       -0.7553475435        0.9420320388
 H         -2.6941099602       -1.3196631711       -0.6842952110
 H         -0.4977203485       -0.3423700695       -1.5527403828
 H         -0.3089609890       -1.7226410587       -0.4360789833
 H         -2.2580998239        1.3718472959        0.0327285530
  12
        -25.90329260
 C         -1.6557189852        0.4948800617       -0.2319920409
 C         -0.8019289297       -0.7814378261       -0.1117583431
 O          0.2921327118       -0.5981630691        0.7819764471
 N          1.3973344985        0.0404367192        0.3073739060
 O          1.3906145196        0.3990198275       -0.8278577647
 O          2.2635360767        0.1596010865        1.1148631485
 O         -2.8067816168        0.2736972512       -1.0000068386
 H         -1.0910207598        1.2693371149       -0.7576881768
 H         -1.9050878711        0.8559903504        0.7734131586
 H         -0.4380475313       -1.0810275212       -1.0986393947
 H         -1.3738436224       -1.5923661664        0.3402439244
 H         -3.4119660523       -0.3160299006       -0.5274030048
  12
        -25.90306606
 C         -2.0129542576       -0.3104160157       -0.2001691585
 C         -0.8737648527       -1.0214561314        0.5279971135
 O          0.3221663764       -0.9263977378       -0.2448441544
 N          1.1824281049        0.0918382091        0.0256325650
 O          1.0034400880        0.7496838185        0.9995250770
 O          2.0674921734        0.1807460040       -0.7677711371
 O         -1.6784447357        1.0605622762       -0.2935260325
 H         -2.9327916588       -0.4555099141        0.3755179737
 H         -2.1267150133       -0.7446326019       -1.2005702214
 H         -1.0751709922       -2.0868936488        0.6218892319
 H         -0.7079143329       -0.5641137946        1.5067082182
 H         -2.4076945487        1.5469845786       -0.6991497845
  12
        -25.90255129
 C         -1.8699030267        0.0479314315        0.0108541445
 C         -0.8468610197       -1.1020679907       -0.0448832365
 O          0.3260270255       -0.8574641918        0.7371630915
 N          1.1939071822        0.0861161867        0.2951498629
 O          0.9073349310        0.6839151821       -0.6967644906
 O          2.1666777164        0.2081287919        0.9697064421
 O         -1.9397170459        0.7931898915       -1.1780147713
 H         -1.6405227908        0.6919497262        0.8705500384
 H         -2.8704123835       -0.3639402801        0.1455643384
 H         -0.5664166755       -1.2891649795       -1.0855190892
 H         -1.2434322068       -2.0094033423        0.4057921652
 H         -1.0771320610        1.1955832694       -1.3671091105
  12
        -25.90233362
 C         -1.6404025002        0.5286273014       -0.2553213458
 C         -0.8141333729       -0.7524055100       -0.1011817568
 O          0.2796189455       -0.5872184139        0.7928344776
 N          1.3960635774        0.0290218853        0.3113324258
 O          1.3857998570        0.3971269863       -0.8205720134
 O          2.2726886872        0.1237074229        1.1101369569
 O         -2.8022479502        0.1746872919       -0.9676447217
 H         -1.0604660139        1.2837384793       -0.8016910068
 H         -1.8900321808        0.9126764538        0.7426097128
 H         -0.4583983155       -1.0840475666       -1.0802695224
 H         -1.4279432585       -1.5299382478        0.3529990525
 H         -3.3447351580        0.9617019555       -1.1134455952
  12
        -25.90212410
 C         -1.7694307695       -0.0542222525       -0.5499829411
 C         -0.8751439500       -0.9295319254        0.3264562919
 O          0.2701309495       -0.2305661271        0.8138590022
 N          1.2937121544       -0.0291781005       -0.0496998733
 O          2.2126716405        0.5682997685        0.4174479234
 O          1.1871547445       -0.4592726695       -1.1573995550
 O         -2.2740649856        1.0013310774        0.2386717765
 H         -2.5807548111       -0.6874937889       -0.9266772936
 H         -1.1949535175        0.3321665944       -1.4016007939
 H         -0.5572723590       -1.8135867366       -0.2313054773
 H         -1.4047211891       -1.2045718235        1.2376596614
 H         -2.8846309107        1.5362263456       -0.2855410367
  12
        -25.90175560
 C         -2.1004260336       -0.0050525018        0.0577403972
 C         -0.6706894218       -0.0715213128       -0.4986580060
 O          0.2121487507       -0.0376330242        0.6214875888
 N          1.5432254817        0.0031163766        0.3483328337
 O          1.8707621853       -0.0026555752       -0.7971266956
 O          2.2351704354        0.0391982725        1.3155529894
 O         -3.0490799445        0.1130707738       -0.9670434962
 H         -2.1992455265        0.8920322290        0.6720516736
 H         -2.2883484788       -0.8819603097        0.6862149892
 H         -0.4786727841        0.7857745159       -1.1515851929
 H         -0.5021864764       -0.9930217842       -1.0652981682
 H         -3.0991466638       -0.7111744815       -1.4719498316
  12
        -25.90149125
 C         -2.0362424803        0.2906066954       -0.0138475126
 C         -0.7046923669       -0.3552461018       -0.4293248331
 O          0.2201057572       -0.1748143179        0.6419421563
 N          1.5332233473        0.0181820083        0.3392413927
 O          1.8540985742        0.0051479514       -0.8076103497
 O          2.2214347983        0.1822612678        1.2956499491
 O         -3.0579974455       -0.0027907374       -0.9269620359
 H         -1.9002655044        1.3713669790        0.1064917919
 H         -2.3494707941       -0.1303702923        0.9435159535
 H         -0.3036772170        0.1048784537       -1.3378830785
 H         -0.8469514743       -1.4264796489       -0.5982230346
 H         -2.8900928199        0.4425663180       -1.7698337438
  12
        -25.90088795
 C         -2.1011832386       -0.0499652181        0.0769317199
 C         -0.6826313430        0.0675967930       -0.4751929154
 O          0.2132384350       -0.0535322475        0.6268834083
 N          1.5405481769       -0.0196207136        0.3381413083
 O          1.8545092384        0.1104547631       -0.8033785415
 O          2.2450750456       -0.1269918272        1.2912394425
 O         -2.9788172780        0.0711919047       -1.0176172250
 H         -2.2660122602        0.7468304975        0.8113980154
 H         -2.2127763230       -1.0218522543        0.5717186839
 H         -0.5462542149        1.0347555531       -0.9676772425
 H         -0.4936038124       -0.7246692669       -1.2053496367
 H         -3.8922563389        0.0096727255       -0.7050293378
  12
        -25.89947442
 C         -2.0537414793        0.2970751595       -0.5410912019
 C         -0.6697932179       -0.3564887133       -0.5373167833
 O          0.2339034695        0.5537027636        0.0935030625
 N          1.5146620144        0.1387176191        0.2445271608
 O          1.7966990551       -0.9469075476       -0.1598616290
 O          2.2239049660        0.9344740506        0.7760956628
 O         -2.9555925901       -0.5983968042        0.0703784467
 H         -2.3663631675        0.5179787072       -1.5666940953
 H         -1.9836033740        1.2334941609        0.0251848675
 H         -0.3078009294       -0.5832356361       -1.5424648463
 H         -0.7207863256       -1.2850508978        0.0399620820
 H         -3.8339230141       -0.1960712038        0.1133532995
