  12
        -25.90418575
 C         -1.9872311627       -0.2867791727       -0.2414747649
 C         -0.8879543514       -0.9870751507        0.5688179681
 O          0.3457222642       -0.9776919616       -0.1527323671
 N          1.1866452990        0.0724478039        0.0344253471
 O          2.1433158640        0.0480558149       -0.6752149812
 O          0.9160631193        0.8725257013        0.8735983620
 O         -1.7393888740        1.0862356702       -0.4260975167
 H         -2.9476682938       -0.4567579299        0.2551591399
 H         -2.0186833578       -0.7163684432       -1.2449278887
 H         -1.1244805570       -2.0420753091        0.6963925961
 H         -0.7415492365       -0.5036534071        1.5388179365
 H         -1.8370779353        1.5558130469        0.4144764917
