  14
  -23.3772990100000       0.500013227435670      !
 C         -2.4111762580       -0.0863425867       -0.0041664742
 C         -1.8303504774       -1.3448428517        0.0057784526
 C         -0.4501955103       -1.4560591306        0.0075161411
 C          0.3281948524       -0.3168404885        0.0005345812
 C         -0.2286212906        0.9679331786       -0.0081598875
 C         -1.6271199917        1.0478280494       -0.0122895694
 N          0.5429927969        2.0909376779        0.0491956518
 Cl         2.0731138535       -0.4894911575       -0.0048944659
 H         -3.4858615878        0.0097113632       -0.0084055770
 H         -2.4400279501       -2.2335521175        0.0103914923
 H          0.0240361478       -2.4252903545        0.0114827335
 H         -2.0853237408        2.0247613479       -0.0193569006
 H          1.5205071207        1.9850685527       -0.1652177143
 H          0.1116124943        2.9602706169       -0.2118419608
  14
  -23.3772989600000       0.499986772564330      !
 C         -2.4111791966       -0.0863283549       -0.0038611106
 C         -1.8303684802       -1.3447997515        0.0057288981
 C         -0.4502223487       -1.4560721213        0.0072944269
 C          0.3282345833       -0.3168316903        0.0004143328
 C         -0.2286225279        0.9679564269       -0.0083094785
 C         -1.6271337238        1.0478207214       -0.0124047443
 N          0.5429225729        2.0909718301        0.0491773824
 Cl         2.0731632414       -0.4895310017       -0.0046819740
 H         -3.4859386805        0.0097253523       -0.0093331839
 H         -2.4400846063       -2.2335074297        0.0074477021
 H          0.0239536783       -2.4253413483        0.0116548176
 H         -2.0854022718        2.0247580281       -0.0184430797
 H          0.1114699594        2.9603022214       -0.2119052351
 H          1.5204573983        1.9851365347       -0.1654075849
