  12
    -1.016749 !GC
 C          0.0000000000        0.0000000000        0.0000000000
 C          1.4931497503        0.0000000000        0.0000000000
 C          2.2175536878        1.1064448950        0.0000000000
 C          2.1096485986       -1.3675903969        0.0034478743
 H         -0.4044955497        0.5407806489       -0.8492508280
 H         -0.3704803477       -1.0252715301       -0.0012411313
 H         -0.3604362458        0.4637725218        0.9213419708
 H          3.2949538263        1.0815421807        0.0040395761
 H          1.7686324492        2.0853909457       -0.0013245139
 H          1.7797149394       -1.9268876955        0.8778881263
 H          1.7971226962       -1.9226403389       -0.8798847237
 H          3.1947113133       -1.3083304376        0.0145434439
  12
    -0.971547 !GC
 C          0.0000000000        0.0000000000        0.0000000000
 C          1.4927312587        0.0000000000        0.0000000000
 C          2.2181300129        1.1059960284        0.0000000000
 C          2.1076226025       -1.3681379464       -0.0014497933
 H         -0.4041422117        0.5171014540        0.8633621811
 H         -0.3609671650        0.4868329175       -0.9083900910
 H         -0.3690149841       -1.0250546997       -0.0267052312
 H          3.2953697283        1.0796905691       -0.0005233861
 H          1.7700513775        2.0853320135        0.0008727058
 H          1.7836199096       -1.9237963522        0.8771692247
 H          1.7869659694       -1.9246716934       -0.8807190978
 H          3.1924057862       -1.3129195693       -0.0001469863
  12
    -0.951871 !GC
 C          0.0000000000        0.0000000000        0.0000000000
 C          1.4927067826        0.0000000000        0.0000000000
 C          2.2180740136        1.1060100644        0.0000000000
 C          2.1076202038       -1.3681278842       -0.0013140886
 H         -0.3862790188        0.4840682258       -0.8935320975
 H         -0.3609550728       -1.0306138406        0.0058060298
 H         -0.3869807371        0.4947209906        0.8873006000
 H          3.2952892261        1.0797308411       -0.0002532466
 H          1.7699854841        2.0853343248        0.0008535637
 H          1.7849570046       -1.9231013374        0.8782390369
 H          1.7855713023       -1.9253436305       -0.8796483674
 H          3.1923990939       -1.3129260703       -0.0017975547
  12
    -0.901827 !GC
 C          0.0000000000        0.0000000000        0.0000000000
 C          1.4929234091        0.0000000000        0.0000000000
 C          2.2176763735        1.1062377220        0.0000000000
 C          2.1082039760       -1.3680574083        0.0103451341
 H         -0.3875562192        0.4585034730        0.9071245607
 H         -0.3868787957        0.5197926566       -0.8733287992
 H         -0.3595974517       -1.0311901679       -0.0341866829
 H          3.2950095495        1.0809303642        0.0046023996
 H          1.7691233564        2.0853432550        0.0006189433
 H          1.7764717293       -1.9250360295        0.8857364916
 H          1.7973663783       -1.9255428836       -0.8720152984
 H          3.1931518095       -1.3088150358        0.0235895862
  12
    -0.403499 !GC
 C          0.0000000000        0.0000000000        0.0000000000
 C          1.4930874245        0.0000000000        0.0000000000
 C          2.2175435148        1.1063944611        0.0000000000
 C          2.1093877331       -1.3676999282        0.0041055430
 H         -0.3871493365       -1.0160094962       -0.0274568367
 H         -0.3699333406        0.4932797453        0.8989765442
 H         -0.3784714017        0.5470893964       -0.8633424195
 H          3.2949266964        1.0813557345        0.0029217973
 H          1.7686898630        2.0853831550       -0.0019852240
 H          1.7991196098       -1.9231261542       -0.8799723471
 H          3.1941459350       -1.3100133816        0.0174767198
 H          1.7761661497       -1.9257700261        0.8783683532
  12
    -0.396516 !GC
 C          0.0000000000        0.0000000000        0.0000000000
 C          1.4925465521        0.0000000000        0.0000000000
 C          2.2183000874        1.1058423314        0.0000000000
 C          2.1062480586       -1.3686041385        0.0048023061
 H         -0.3869351829       -1.0161738379        0.0037898322
 H         -0.3778325061        0.5279646060        0.8748116638
 H         -0.3681281528        0.5145992429       -0.8873844402
 H          3.2954788087        1.0792299583        0.0003947870
 H          1.7705817513        2.0853238827        0.0033472423
 H          1.8045730816       -1.8976988718       -0.9011845452
 H          3.1920536894       -1.2944772419       -0.0289006119
 H          1.8042014063       -1.9515038372        0.8666520925
  12
    -0.392274 !GC
 C          0.0000000000        0.0000000000        0.0000000000
 C          1.4930836395        0.0000000000        0.0000000000
 C          2.2174502233        1.1064051097        0.0000000000
 C          2.1095757270       -1.3676045374        0.0042291615
 H         -0.3868998386       -1.0159365591       -0.0327437471
 H         -0.3701181778        0.4884558822        0.9014786324
 H         -0.3785908329        0.5513358790       -0.8605452742
 H          3.2948219795        1.0814293519        0.0039545796
 H          1.7685333888        2.0853489494       -0.0018749342
 H          3.1946004768       -1.3110883080        0.0132532410
 H          1.7805666091       -1.9248820902        0.8801493503
 H          1.7942129448       -1.9228803926       -0.8783994172
  12
    -0.201005 !GC
 C          0.0000000000        0.0000000000        0.0000000000
 C          1.4987898613        0.0000000000        0.0000000000
 C          2.2094472091        1.1162618269        0.0000000000
 C          2.1330377263       -1.3578230080       -0.0013265282
 H         -0.4095134529       -0.5158323085        0.8608674759
 H         -0.3755100401        1.0218833928       -0.0337766507
 H         -0.3564556186       -0.4907738010       -0.9079230883
 H          3.2865783130        1.1063944277        0.0012741148
 H          1.7445547552        2.0878912708        0.0012243184
 H          3.2174797471       -1.2642893478        0.0349736484
 H          1.8376411792       -1.8907576010        0.9045934810
 H          1.8414198489       -1.9454432708       -0.8639686964
  12
    -0.199405 !GC
 C          0.0000000000        0.0000000000        0.0000000000
 C          1.4986652096        0.0000000000        0.0000000000
 C          2.2094088831        1.1162593630        0.0000000000
 C          2.1324492267       -1.3580182573       -0.0008219506
 H         -0.4093783567       -0.5134677776       -0.8626565917
 H         -0.3567368322       -0.4931772201        0.9068280102
 H         -0.3741491613        1.0225966359        0.0366363048
 H          3.2865435606        1.1062989498       -0.0012624356
 H          1.7445828978        2.0879721065        0.0016723740
 H          1.8353074411       -1.8885790464       -0.9075394190
 H          3.2170376775       -1.2657205865       -0.0385260678
 H          1.8413295949       -1.9468674325        0.8612547842
  12
    -0.195871 !GC
 C          0.0000000000        0.0000000000        0.0000000000
 C          1.4988878921        0.0000000000        0.0000000000
 C          2.2092099414        1.1163742828        0.0000000000
 C          2.1341422743       -1.3574186421       -0.0067402584
 H         -0.3915824985       -0.4858326190        0.8892232578
 H         -0.3580665808        1.0313888590        0.0013022991
 H         -0.3932876942       -0.4842309206       -0.8894707285
 H          3.2863542170        1.1067059211       -0.0004897768
 H          1.7440226194        2.0878807307       -0.0019374298
 H          3.2178258897       -1.2818134299       -0.0100842493
 H          1.8235711313       -1.9214606051        0.8716708589
 H          1.8177191235       -1.9156413282       -0.8868402336
  12
    -0.194777 !GC
 C          0.0000000000        0.0000000000        0.0000000000
 C          1.4986196638        0.0000000000        0.0000000000
 C          2.2094350704        1.1161188538        0.0000000000
 C          2.1323825018       -1.3579205790       -0.0022460851
 H         -0.3738408085       -0.5203728294       -0.8809303686
 H         -0.3750341964       -0.5245159594        0.8780394168
 H         -0.3921771476        1.0134340119        0.0022282370
 H          3.2865560121        1.1059948139       -0.0004169895
 H          1.7447341073        2.0878201017       -0.0001247982
 H          1.8589564615       -1.9169410576       -0.8929757279
 H          3.2182720447       -1.2442729685       -0.0019836381
 H          1.8588234994       -1.9197716090        0.8865997713
  12
    -0.138916 !GC
 C          0.0000000000        0.0000000000        0.0000000000
 C          1.4989123682        0.0000000000        0.0000000000
 C          2.2092661433        1.1163606757        0.0000000000
 C          2.1341448499       -1.3574284942       -0.0068749433
 H         -0.4093762668       -0.5124776559       -0.8625870497
 H         -0.3580786961       -0.4934490859        0.9056781869
 H         -0.3753956051        1.0216849684        0.0369368159
 H          3.2864352646        1.1066665048       -0.0007595635
 H          1.7440884616        2.0878790516       -0.0019182803
 H          3.2178275584       -1.2818558032       -0.0085224132
 H          1.8222180550       -1.9222194868        0.8705677490
 H          1.8190896526       -1.9148743965       -0.8879646522
  12
    -0.136013 !GC
 C          0.0000000000        0.0000000000        0.0000000000
 C          1.4987937725        0.0000000000        0.0000000000
 C          2.2095407309        1.1162521860        0.0000000000
 C          2.1328513497       -1.3579203839       -0.0014493260
 H         -0.4097600939       -0.5113012597        0.8634623122
 H         -0.3753260636        1.0218033751       -0.0391950632
 H         -0.3563345496       -0.4953200804       -0.9055357952
 H          3.2866815904        1.1063238889        0.0002425991
 H          1.7447104124        2.0879277144        0.0011133542
 H          1.8383789313       -1.8873843111       -0.9096632923
 H          3.2174578118       -1.2653634394       -0.0358346719
 H          1.8394917679       -1.9482130729        0.8587719625
  12
    -0.135390 !GC
 C          0.0000000000        0.0000000000        0.0000000000
 C          1.4990506458        0.0000000000        0.0000000000
 C          2.2099413429        1.1161166734        0.0000000000
 C          2.1333793680       -1.3577590047        0.0035868889
 H         -0.4108521540       -0.5143640211       -0.8610187176
 H         -0.3574876431       -0.4910248127        0.9072212674
 H         -0.3738207742        1.0223193842        0.0349322562
 H          3.2871256875        1.1060817007        0.0060516672
 H          1.7451716973        2.0878124015        0.0027411096
 H          3.2174821469       -1.2627198915        0.0473459380
 H          1.8322988031       -1.8904362781        0.9080088345
 H          1.8483449984       -1.9462428231       -0.8608283366
  12
    -0.122164 !GC
 C          0.0000000000        0.0000000000        0.0000000000
 C          1.4983506786        0.0000000000        0.0000000000
 C          2.2100672596        1.1158292024        0.0000000000
 C          2.1308315120       -1.3584611614       -0.0061799236
 H         -0.3916162292       -0.4534327362        0.9058568358
 H         -0.3658360982        1.0269086118       -0.0464314005
 H         -0.3829184955       -0.5251665011       -0.8705331003
 H          3.2870274492        1.1045316519       -0.0040453558
 H          1.7460689058        2.0878935606        0.0032969355
 H          1.8242356330       -1.8863214420       -0.9109809041
 H          3.2150608092       -1.2687460631       -0.0527120910
 H          1.8476552209       -1.9490394815        0.8565565470
  12
    -0.066019 !GC
 C          0.0000000000        0.0000000000        0.0000000000
 C          1.4987691702        0.0000000000        0.0000000000
 C          2.2094849366        1.1162654652        0.0000000000
 C          2.1328483854       -1.3579102783       -0.0013143109
 H         -0.3919638597        1.0134470074       -0.0000428320
 H         -0.3753139061       -0.5221810479       -0.8791845448
 H         -0.3744599164       -0.5220221096        0.8796338926
 H          3.2866005709        1.1063621148        0.0005121261
 H          1.7446457238        2.0879292081        0.0010941623
 H          1.8370080060       -1.8881068404       -0.9086643902
 H          3.2173996466       -1.2653215008       -0.0374655953
 H          1.8408928654       -1.9475058920        0.8598548801
  12
    -0.065835 !GC
 C          0.0000000000        0.0000000000        0.0000000000
 C          1.4986235750        0.0000000000        0.0000000000
 C          2.2093621211        1.1162054918        0.0000000000
 C          2.1323791477       -1.3580454128       -0.0001808761
 H         -0.4096476136       -0.5134700529       -0.8624040253
 H         -0.3563857444       -0.4930447258        0.9069223172
 H         -0.3742012358        1.0224808107        0.0366433834
 H          3.2864936397        1.1061462671       -0.0016172487
 H          1.7445487475        2.0879289548        0.0011398032
 H          1.8173439823       -1.9178567317        0.8793067388
 H          1.8174645316       -1.9185605715       -0.8793425274
 H          3.2164374838       -1.2851959353       -0.0002125682
  12
    -0.065703 !GC
 C          0.0000000000        0.0000000000        0.0000000000
 C          1.4985990988        0.0000000000        0.0000000000
 C          2.2093059218        1.1162191097        0.0000000000
 C          2.1323765820       -1.3580349205       -0.0000461819
 H         -0.3918475537       -0.4851635564        0.8899926757
 H         -0.3563736088        1.0322890772        0.0003526199
 H         -0.3921112385       -0.4848961945       -0.8900256370
 H          3.2864128169        1.1061855659       -0.0013474463
 H          1.7444828488        2.0879306828        0.0011206110
 H          1.8186727963       -1.9171411065        0.8803741326
 H          1.8160776420       -1.9192512954       -0.8782692867
 H          3.2164288734       -1.2852048196       -0.0018677541
  12
    -0.065151 !GC
 C          0.0000000000        0.0000000000        0.0000000000
 C          1.4983422255        0.0000000000        0.0000000000
 C          2.2089056914        1.1163546420        0.0000000000
 C          2.1318485501       -1.3581828270       -0.0050834927
 H         -0.3907419648        1.0141552707        0.0014494883
 H         -0.3742278136       -0.5209117526       -0.8807729982
 H         -0.3748406244       -0.5235999131        0.8789526337
 H          3.2859293032        1.1064527636       -0.0071560555
 H          1.7440243783        2.0880444621       -0.0005065577
 H          3.2177378640       -1.2457376984       -0.0098345743
 H          1.8623514794       -1.9201204987        0.8846608541
 H          1.8539005727       -1.9169460965       -0.8943074463
  12
    -0.006534 !GC
 C          0.0000000000        0.0000000000        0.0000000000
 C          1.4931081156        0.0000000000        0.0000000000
 C          2.2175062291        1.1063911018        0.0000000000
 C          2.1095781345       -1.3676151748        0.0040935501
 H         -0.4047661651        0.5405552760       -0.8491399635
 H         -0.3701301535       -1.0252959759       -0.0010808018
 H         -0.3604902155        0.4637107928        0.9212444959
 H          3.2949035589        1.0813884545        0.0036845719
 H          1.7685992308        2.0853467060       -0.0018558302
 H          3.1945819179       -1.3111279047        0.0148103917
 H          1.7792151527       -1.9256243576        0.8790315524
 H          1.7956044136       -1.9221359489       -0.8795115803
  12
    -0.004875 !GC
 C          0.0000000000        0.0000000000        0.0000000000
 C          1.4927728934        0.0000000000        0.0000000000
 C          2.2181775111        1.1060498191        0.0000000000
 C          2.1076930919       -1.3681105851       -0.0020956077
 H         -0.4038716230        0.5170987812        0.8636136691
 H         -0.3613181438        0.4869650073       -0.9082953253
 H         -0.3689622840       -1.0251701894       -0.0266969890
 H          3.2954215209        1.0798433813       -0.0001681462
 H          1.7700859567        2.0853753909        0.0014039908
 H          1.8033314968       -1.8925140266       -0.9097627374
 H          3.1934098015       -1.2936382354       -0.0386605404
 H          1.8085163009       -1.9554828357        0.8578316347
  12
    -0.003522 !GC
 C          0.0000000000        0.0000000000        0.0000000000
 C          1.4927105675        0.0000000000        0.0000000000
 C          2.2181673076        1.1059993372        0.0000000000
 C          2.1074321282       -1.3682225517       -0.0014381394
 H         -0.3865284554        0.4793747384       -0.8959641699
 H         -0.3607688119       -1.0306795331        0.0112679609
 H         -0.3868623490        0.4991671080        0.8848965807
 H          3.2953898991        1.0796597446       -0.0012861982
 H          1.7701417234        2.0853685792        0.0007437327
 H          3.1944844740       -1.2690179608        0.0021927115
 H          1.8249251035       -1.9288448236        0.8849786769
 H          1.8305764231       -1.9241836255       -0.8925313333
  12
    -0.001890 !GC
 C          0.0000000000        0.0000000000        0.0000000000
 C          1.4928267661        0.0000000000        0.0000000000
 C          2.2170518279        1.1065423845        0.0000000000
 C          2.1090453655       -1.3677647869       -0.0008431765
 H         -0.3857906999        0.4564431536        0.9087866674
 H         -0.3878102325        0.5222281236       -0.8715876243
 H         -0.3611318795       -1.0306941140       -0.0362023882
 H          3.2943702945        1.0816810211       -0.0018612653
 H          1.7680808750        2.0854625045       -0.0034976257
 H          1.7933971531       -1.9238055321       -0.8825449977
 H          3.1936739116       -1.3099299099        0.0055671224
 H          1.7817354652       -1.9255169521        0.8756908778
  12
    -0.001632 !GC
 C          0.0000000000        0.0000000000        0.0000000000
 C          1.4930773312        0.0000000000        0.0000000000
 C          2.2174845009        1.1063830610        0.0000000000
 C          2.1095015803       -1.3676434278        0.0037519088
 H         -0.3870522719       -1.0159607816       -0.0290050113
 H         -0.3701035011        0.4918779434        0.8996630163
 H         -0.3783821636        0.5482891488       -0.8625933501
 H          3.2948472317        1.0813860360        0.0048110359
 H          1.7686262744        2.0853003117       -0.0100289988
 H          1.7783806158       -1.9271693343        0.8775799393
 H          1.7979600886       -1.9224880120       -0.8801086169
 H          3.1945851362       -1.3085284840        0.0161729036
  12
    -0.000226 !GC
 C          0.0000000000        0.0000000000        0.0000000000
 C          1.4932120762        0.0000000000        0.0000000000
 C          2.2175822519        1.1063979325        0.0000000000
 C          2.1099789197       -1.3675126301        0.0035970057
 H         -0.3872926148        0.4574883103        0.9072384059
 H         -0.3885352185        0.5201107170       -0.8720346165
 H         -0.3608074842       -1.0304118664       -0.0344855235
 H          3.2949533182        1.0814586690        0.0054611329
 H          1.7686623480        2.0853033296       -0.0024316900
 H          3.1949766033       -1.3112440335        0.0155040501
 H          1.7785529125       -1.9263823418        0.8775024120
 H          1.7971226894       -1.9212568986       -0.8807791368
  12
    -0.000132 !GC
 C          0.0000000000        0.0000000000        0.0000000000
 C          1.4927004743        0.0000000000        0.0000000000
 C          2.2181082799        1.1059879793        0.0000000000
 C          2.1075460240       -1.3681647614       -0.0017916755
 H         -0.3864314269        0.4807377382       -0.8952270513
 H         -0.3609399561       -1.0306256688        0.0097000054
 H         -0.3867734182        0.4979476059        0.8855962155
 H          3.2953177336        1.0796853409        0.0006033869
 H          1.7700579302        2.0852989883       -0.0072998983
 H          1.8042815163       -1.8921638554       -0.9100429675
 H          3.1933533067       -1.2938027489       -0.0371103255
 H          1.8073351971       -1.9558692613        0.8575823474
  12
    -0.000030 !GC
 C          0.0000000000        0.0000000000        0.0000000000
 C          1.4928147804        0.0000000000        0.0000000000
 C          2.2180781581        1.1061047217        0.0000000000
 C          2.1080160083       -1.3681476678        0.0002698802
 H         -0.4045085752        0.5180695689        0.8624595205
 H         -0.3608877171        0.4854741073       -0.9089169868
 H         -0.3692590644       -1.0248116857       -0.0253982024
 H          3.2952872466        1.0799479812        0.0003223525
 H          1.7698634772        2.0854034381        0.0015388105
 H          3.1948930281       -1.2687022691        0.0001433829
 H          1.8285244257       -1.9270447948        0.8886790664
 H          1.8287947712       -1.9265416713       -0.8884137032
  12
    -0.000012 !GC
 C          0.0000000000        0.0000000000        0.0000000000
 C          1.4931916373        0.0000000000        0.0000000000
 C          2.2174543116        1.1064996717        0.0000000000
 C          2.1099715798       -1.3676175741        0.0058125971
 H         -0.4051325693        0.5393134932       -0.8496018936
 H         -0.3700490525       -1.0251208018        0.0003584567
 H         -0.3607375996        0.4647553374        0.9204108570
 H          3.2948175814        1.0816478528        0.0045300380
 H          1.7684096317        2.0854189835       -0.0011897623
 H          1.7971317377       -1.9255063306       -0.8756089606
 H          3.1947349401       -1.3101505666        0.0159598252
 H          1.7796331060       -1.9235689921        0.8823661039
