  12
  -12.6141769400000       0.111114769061853      !
 C          1.2641788833       -0.7017943440       -0.0000006025
 C         -0.0000062530        0.1030989048        0.0000001394
 C         -0.0000936253        1.4263362721       -0.0000017729
 C         -1.2640876965       -0.7019482731        0.0000004822
 H          1.2997497910       -1.3433736433        0.8793435691
 H          1.2996313782       -1.3435735639       -0.8792030567
 H          2.1393093643       -0.0579868302       -0.0001276519
 H         -0.9140980259        1.9962668256        0.0000082716
 H          0.9138347522        1.9963854831        0.0000055756
 H         -1.2994562136       -1.3437189779        0.8792134984
 H         -2.1392895533       -0.0582385646        0.0001302932
 H         -1.2995779239       -1.3435274775       -0.8793496020
  12
  -12.6141769400000       0.111114769061853      !
 C          1.2641991475       -0.7017781626       -0.0000032148
 C         -0.0000065023        0.1030911863        0.0000184535
 C         -0.0000864871        1.4263216017       -0.0000054604
 C         -1.2641128900       -0.7019428145       -0.0000021300
 H          1.2995627626       -1.3437038202       -0.8791049863
 H          2.1393309855       -0.0579644484       -0.0003253507
 H          1.2998531691       -1.3432090284        0.8794465449
 H         -0.9140876781        1.9962555037       -0.0001209378
 H          0.9138457529        1.9963685909        0.0000147172
 H         -1.2995332380       -1.3436642102       -0.8792489111
 H         -1.2995638018       -1.3435957320        0.8792920365
 H         -2.1393277338       -0.0582446796       -0.0000442522
  12
  -12.6141769300000       0.111113593257223      !
 C          1.2641972876       -0.7017876017        0.0000065305
 C         -0.0000064866        0.1030947654       -0.0000268794
 C         -0.0000926904        1.4263298147        0.0000071150
 C         -1.2641068282       -0.7019429725        0.0000076153
 H          1.2997104141       -1.3434758215       -0.8792584438
 H          2.1393356944       -0.0579810969        0.0000141276
 H          1.2997066327       -1.3434724645        0.8792766351
 H         -0.9140994564        1.9962617981       -0.0000012058
 H          0.9138405281        1.9963808288        0.0000037076
 H         -2.1393200154       -0.0582415966        0.0001002424
 H         -1.2995753107       -1.3435691790       -0.8793076514
 H         -1.2994946067       -1.3436864494        0.8792395411
  12
  -12.6141769200000       0.111112417465243      !
 C          1.2641584192       -0.7018135695       -0.0000027053
 C         -0.0000066135        0.1031176424        0.0000149355
 C         -0.0000882501        1.4263670136       -0.0000047440
 C         -1.2640709884       -0.7019755901       -0.0000016205
 H          2.1392578650       -0.0579845756        0.0002648987
 H          1.2995838707       -1.3437079719        0.8791159361
 H          1.2998283090       -1.3432756046       -0.8794298320
 H         -0.9140941026        1.9963059354        0.0000157888
 H          0.9138464447        1.9964199275       -0.0000182248
 H         -1.2995642835       -1.3436366243        0.8792912118
 H         -2.1392457445       -0.0582467800       -0.0000452137
 H         -1.2995237896       -1.3436760482       -0.8792644622
  12
  -12.6141769200000       0.111112417465243      !
 C          1.2642005034       -0.7017798154        0.0000029676
 C         -0.0000065506        0.1030871862       -0.0000131309
 C         -0.0000884744        1.4263244735        0.0000026626
 C         -1.2641116730       -0.7019407795        0.0000040524
 H          2.1393404004       -0.0579481140        0.0001538874
 H          1.2996003600       -1.3435686747        0.8792134893
 H          1.2997568467       -1.3433554608       -0.8793581672
 H         -0.9140830934        1.9962551102       -0.0000118955
 H          0.9138387443        1.9963751161        0.0000159263
 H         -2.1393383029       -0.0582499360       -0.0001322724
 H         -1.2994600496       -1.3437315814       -0.8791899805
 H         -1.2995810892       -1.3435253941        0.8793501019
  12
  -12.6141769100000       0.111111241685497      !
 C          1.2641680232       -0.7018148548       -0.0000127299
 C         -0.0000044265        0.1031135080        0.0000635306
 C         -0.0000964363        1.4263596128       -0.0000177807
 C         -1.2640752374       -0.7019648599       -0.0000116451
 H          1.2997433891       -1.3434724669        0.8792852448
 H          1.2996834293       -1.3435092034       -0.8792840449
 H          2.1392618778       -0.0579687926       -0.0000822275
 H         -0.9140892544        1.9962952506       -0.0000167646
 H          0.9138131377        1.9964096427       -0.0000401487
 H         -1.2996277909       -1.3434339877       -0.8794406109
 H         -1.2994252182       -1.3438534331        0.8791210563
 H         -2.1392633236       -0.0582438423        0.0002027907
  12
  -12.6141769100000       0.111111241685497      !
 C          1.2643298337       -0.7015851134       -0.0000400802
 C         -0.0000033286        0.1030023030        0.0000950246
 C         -0.0000362377        1.4261073536       -0.0000481542
 C         -1.2642880241       -0.7018311678       -0.0000389952
 H          1.3000390827       -1.3426693018        0.8795695927
 H          1.2995153186       -1.3437910251       -0.8788418224
 H          2.1394813696       -0.0579371783       -0.0008191533
 H         -0.9140172860        1.9960233346       -0.0003005948
 H          0.9138993147        1.9960921565        0.0008809255
 H         -2.1396760785       -0.0582818386        0.0005718743
 H         -1.2998783287       -1.3432184726       -0.8795095385
 H         -1.2993901229       -1.3439941425        0.8788324751
  12
  -12.6141768800000       0.111107714421328      !
 C          1.2640915203       -0.7017705860       -0.0000299258
 C         -0.0000094411        0.1031366443        0.0000989615
 C         -0.0000429090        1.4263541110       -0.0000376807
 C         -1.2640421521       -0.7020045501       -0.0000288409
 H          2.1392524739       -0.0581273928        0.0001473087
 H          1.2993234889       -1.3435358183        0.8791078698
 H          1.2996941340       -1.3432817744       -0.8793435499
 H         -0.9140283119        1.9962836655       -0.0002623603
 H          0.9139117220        1.9963919051        0.0002552158
 H         -1.2993425666       -1.3441071361       -0.8790145047
 H         -1.2995306894       -1.3434099360        0.8794553294
 H         -2.1392447173       -0.0582550402       -0.0003752667
  12
  -12.6141768300000       0.111101835896264      !
 C          1.2641541408       -0.7017985180        0.0000253233
 C         -0.0000067074        0.1031109328       -0.0000583664
 C         -0.0000755786        1.4263557755        0.0000284913
 C         -1.2640734237       -0.7019784087        0.0000264080
 H          1.2993794534       -1.3439021544       -0.8789527196
 H          2.1392482246       -0.0579388046       -0.0005436259
 H          1.2999336581       -1.3430278173        0.8796372065
 H         -0.9140773656        1.9962969933       -0.0001096079
 H          0.9138652927        1.9964030112       -0.0002545945
 H         -1.2990684798       -1.3444706035        0.8787341959
 H         -2.1392484192       -0.0582485535        0.0010518689
 H         -1.3000136690       -1.3428457139       -0.8798231640
