  7
    -0.624267 !GC
 C          0.0000000000        0.0000000000        0.0000000000
 N          1.4457601507        0.0000000000        0.0000000000
 O          2.0188767706        1.0715014791        0.0000000000
 O          2.0200493807       -1.0699318102       -0.0471861901
 H         -0.3596680640       -0.9222521471       -0.4492273285
 H         -0.3603865730        0.8841056776       -0.5213623462
 H         -0.3365437122        0.0468782512        1.0372994538
  7
    -0.520715 !GC
 C          0.0000000000        0.0000000000        0.0000000000
 N          1.4454401945        0.0000000000        0.0000000000
 O          2.0178629435        1.0720330855        0.0000000000
 O          2.0207001340       -1.0693149661       -0.0450566352
 H         -0.3571978249       -1.0081449554       -0.1970248163
 H         -0.3628212306        0.7349125122       -0.7135160132
 H         -0.3370329641        0.2813126103        1.0000472617
  7
    -0.434365 !GC
 C          0.0000000000        0.0000000000        0.0000000000
 N          1.4457158665        0.0000000000        0.0000000000
 O          2.0173455455        1.0724701872        0.0000000000
 O          2.0214171343       -1.0690591228       -0.0455999464
 H         -0.3593144777        0.2595528646        0.9931884424
 H         -0.3809444189       -0.9323331507       -0.4010986116
 H         -0.3155596856        0.8267811035       -0.6446362982
  7
    -0.381364 !GC
 C          0.0000000000        0.0000000000        0.0000000000
 N          1.4455635845        0.0000000000        0.0000000000
 O          2.0161165720        1.0731799758        0.0000000000
 O          2.0224178816       -1.0680969163       -0.0486252890
 H         -0.3793255390        0.1323749696        1.0062474120
 H         -0.3404117595       -0.9210823357       -0.4744202702
 H         -0.3371799024        0.7964240780       -0.6665387005
  7
    -0.378333 !GC
 C          0.0000000000        0.0000000000        0.0000000000
 N          1.4457202823        0.0000000000        0.0000000000
 O          2.0186215433        1.0715287988        0.0000000000
 O          2.0196753978       -1.0709798398        0.0008016107
 H         -0.3813058261        0.9026332256       -0.4627239839
 H         -0.3599771673       -0.1999509863        1.0067119425
 H         -0.3149448934       -0.8661058014       -0.5911965196
  7
    -0.304487 !GC
 C          0.0000000000        0.0000000000        0.0000000000
 N          1.4455967661        0.0000000000        0.0000000000
 O          2.0203647906        1.0703776908        0.0000000000
 O          2.0179546160       -1.0720272659        0.0044290035
 H         -0.3591983377        0.1533266155        1.0151568775
 H         -0.3820855441       -0.8798184583       -0.5044590989
 H         -0.3147902167        0.8946949519       -0.5475758501
  7
    -0.126045 !GC
 C          0.0000000000        0.0000000000        0.0000000000
 N          1.4455707760        0.0000000000        0.0000000000
 O          2.0176075466        1.0721904738        0.0000000000
 O          2.0207155331       -1.0701751366       -0.0141403566
 H         -0.3593947959       -0.2269630252       -1.0013546970
 H         -0.3807908022        0.9183617713        0.4316112149
 H         -0.3162202041       -0.8498121467        0.6133519783
  7
    -0.120293 !GC
 C          0.0000000000        0.0000000000        0.0000000000
 N          1.4456902549        0.0000000000        0.0000000000
 O          2.0170839224        1.0726193926        0.0000000000
 O          2.0217296096       -1.0681132428       -0.0600066200
 H         -0.3787059760        0.7078048674       -0.7279549518
 H         -0.3627112995        0.1103386130        1.0187903522
 H         -0.3141007922       -1.0042739533       -0.3060129793
  7
    -0.109289 !GC
 C          0.0000000000        0.0000000000        0.0000000000
 N          1.4457418566        0.0000000000        0.0000000000
 O          2.0201036523        1.0706584375        0.0000000000
 O          2.0186569641       -1.0714579213       -0.0270972452
 H         -0.3591180509       -0.1864226149       -1.0093892628
 H         -0.3822394438        0.8962116723        0.4751969183
 H         -0.3141288669       -0.8740852389        0.5805460817
  7
    -0.103010 !GC
 C          0.0000000000        0.0000000000        0.0000000000
 N          1.4454658061        0.0000000000        0.0000000000
 O          2.0181244145        1.0718836537        0.0000000000
 O          2.0203874720       -1.0700588997       -0.0306318295
 H         -0.3374858734        0.6974758212       -0.7687654316
 H         -0.3810453380        0.2573465314        0.9813236899
 H         -0.3384518150       -0.9784663290       -0.3445508135
  7
    -0.101019 !GC
 C          0.0000000000        0.0000000000        0.0000000000
 N          1.4458653729        0.0000000000        0.0000000000
 O          2.0183598525        1.0718088384        0.0000000000
 O          2.0203772973       -1.0703034496       -0.0306914404
 H         -0.3812207339       -0.8868269044        0.4919093918
 H         -0.3601261780        0.1665931816       -1.0129937710
 H         -0.3142837875        0.8877151389        0.5588870904
  7
    -0.087222 !GC
 C          0.0000000000        0.0000000000        0.0000000000
 N          1.4456409241        0.0000000000        0.0000000000
 O          2.0193995711        1.0710716669        0.0000000000
 O          2.0190345341       -1.0714405566       -0.0012482976
 H         -0.3400693555       -0.8888336096        0.5339801798
 H         -0.3785049125        0.0146468959       -1.0162998888
 H         -0.3386116060        0.8526983136        0.5892482859
  7
    -0.022966 !GC
 C          0.0000000000        0.0000000000        0.0000000000
 N          1.4457387025        0.0000000000        0.0000000000
 O          2.0173932705        1.0723702803        0.0000000000
 O          2.0210665252       -1.0699761070       -0.0193048177
 H         -0.3818390594        0.1636986702       -1.0003940811
 H         -0.3377757479        0.7618694847        0.7048040733
 H         -0.3373412950       -0.9428886012        0.4332681790
  7
    -0.022274 !GC
 C          0.0000000000        0.0000000000        0.0000000000
 N          1.4455451643        0.0000000000        0.0000000000
 O          2.0173459949        1.0723397686        0.0000000000
 O          2.0210281081       -1.0696535050       -0.0285718242
 H         -0.3787905334       -0.7313953476        0.7045504623
 H         -0.3625617109       -0.0765770938       -1.0216582879
 H         -0.3147625339        0.9919121811        0.3428988036
