  11
  -10.5007731400000       0.111112678771197      !
 C         -1.2611525128        0.2721997588        0.0000005816
 C          0.0000022103       -0.5838212332       -0.0000019560
 C          1.2611473178        0.2722058221        0.0000000529
 H         -1.2880304178        0.9085760606       -0.8818198448
 H         -2.1502667906       -0.3537318645       -0.0000364521
 H         -1.2880771331        0.9085347820        0.8818505575
 H         -0.0000003685       -1.2285278210        0.8816341025
 H          0.0000306575       -1.2285105321       -0.8816469270
 H          2.1502353391       -0.3537514961        0.0000538119
 H          1.2880421363        0.9085552922        0.8818383019
 H          1.2881021425        0.9085369462       -0.8818578027
  11
  -10.5007731400000       0.111112678771197      !
 C         -1.2611316412        0.2722049026       -0.0000012242
 C         -0.0000010284       -0.5838368506       -0.0000037618
 C          1.2611311437        0.2722134942       -0.0000017529
 H         -1.2880090923        0.9085019927       -0.8818874650
 H         -2.1502364609       -0.3537383718        0.0000286906
 H         -1.2880516345        0.9085899001        0.8818200575
 H         -0.0000255353       -1.2284476714        0.8816974160
 H          0.0000114867       -1.2286065219       -0.8816041205
 H          1.2880733841        0.9085278447       -0.8818700890
 H          2.1502435623       -0.3537162945        0.0000903795
 H          1.2880124722        0.9086038721        0.8818054322
  11
  -10.5007731400000       0.111112678771197      !
 C         -1.2611401480        0.2722014239        0.0000008343
 C          0.0000045797       -0.5838320722       -0.0000017033
 C          1.2611376440        0.2722070238        0.0000003056
 H         -1.2880446235        0.9085808127        0.8818180533
 H         -1.2880622623        0.9085387969       -0.8818442519
 H         -2.1502601320       -0.3537203730        0.0000228935
 H          0.0000089811       -1.2285092207        0.8816531758
 H          0.0000217109       -1.2285567854       -0.8816278235
 H          2.1502682870       -0.3537133528        0.0000071576
 H          1.2880360957        0.9085935887        0.8818128781
 H          1.2880072082        0.9085628992       -0.8818353688
  11
  -10.5007731400000       0.111112678771197      !
 C         -1.2611319628        0.2722092336        0.0000043211
 C          0.0000141059       -0.5838453853        0.0000017835
 C          1.2611301041        0.2722106689        0.0000037924
 H         -2.1502977932       -0.3536723942       -0.0000170589
 H         -1.2880738880        0.9085869220        0.8818275978
 H         -1.2880002013        0.9085571872       -0.8818501154
 H          0.0000019551       -1.2285663679        0.8816194975
 H         -0.0000172068       -1.2285245618       -0.8816569833
 H          1.2880497924        0.9085705970        0.8818177026
 H          1.2879527284        0.9085544769       -0.8818335970
 H          2.1502386754       -0.3537073512       -0.0000249767
  11
  -10.5007731400000       0.111112678771197      !
 C         -1.2611627989        0.2721904703        0.0000021458
 C          0.0000004095       -0.5838096736       -0.0000003917
 C          1.2611617350        0.2721982832        0.0000016171
 H         -1.2880073206        0.9085360048       -0.8818269491
 H         -2.1502947549       -0.3537274155       -0.0000271330
 H         -1.2880708856        0.9085654103        0.8818289027
 H         -0.0000220815       -1.2285265323        0.8816257366
 H          0.0000268063       -1.2285029286       -0.8816348558
 H          1.2880402259        0.9085499084        0.8818499503
 H          1.2880443265        0.9085647706       -0.8818226541
 H          2.1502914821       -0.3537150782       -0.0000331696
  11
  -10.5007731300000       0.111111502988894      !
 C         -1.2611707834        0.2721878557        0.0000044643
 C         -0.0000064613       -0.5838093035        0.0000019268
 C          1.2611718923        0.2721992693        0.0000039356
 H         -2.1503169970       -0.3537111637       -0.0000799086
 H         -1.2880366621        0.9085369647        0.8818623442
 H         -1.2880380840        0.9085390952       -0.8818200881
 H         -0.0000426170       -1.2285582476        0.8816164803
 H         -0.0000335296       -1.2284375192       -0.8816896095
 H          1.2881166175        0.9085727565       -0.8818067248
 H          2.1502859345       -0.3537186336       -0.0000569183
 H          1.2881291176        0.9085358828        0.8818513713
  11
  -10.5007731300000       0.111111502988894      !
 C         -1.2611258503        0.2722132739        0.0000050269
 C          0.0000096324       -0.5838601624        0.0000024892
 C          1.2611237505        0.2722166789        0.0000044982
 H         -1.2880499148        0.9086143771        0.8818206750
 H         -1.2879965591        0.9085369514       -0.8818808582
 H         -2.1503034224       -0.3536513211        0.0000043479
 H          0.0000199730       -1.2285589891        0.8816372001
 H         -0.0000254952       -1.2285310599       -0.8816582723
 H          1.2879376776        0.9085610501       -0.8818585119
 H          2.1502637413       -0.3536764380       -0.0000510825
 H          1.2880642399        0.9085602643        0.8818433383
  11
  -10.5007731300000       0.111111502988894      !
 C         -1.2611246989        0.2722142098        0.0000086094
 C          0.0000093240       -0.5838511437        0.0000060717
 C          1.2611111326        0.2722151599        0.0000080807
 H         -1.2881273859        0.9085591592        0.8818671979
 H         -1.2879363877        0.9085387266       -0.8818517531
 H         -2.1502220046       -0.3537238103       -0.0001162093
 H          0.0000084842       -1.2286676065        0.8815835344
 H          0.0001540128       -1.2284190032       -0.8817212706
 H          1.2879576556        0.9085312908        0.8818825065
 H          1.2879522013        0.9085712749       -0.8818114753
 H          2.1502639755       -0.3536357169       -0.0001037625
  11
  -10.5007730500000       0.111102097177332      !
 C         -1.2608150404        0.2723321345        0.0000191287
 C         -0.0000333519       -0.5841867844        0.0000165898
 C          1.2608434697        0.2723618975        0.0000186001
 H         -2.1501803817       -0.3535634214       -0.0003499907
 H         -1.2870954922        0.9085150479        0.8817949985
 H         -1.2876823366        0.9095015406       -0.8812112259
 H         -0.0001715451       -1.2295601561        0.8812422526
 H         -0.0005397826       -1.2282315977       -0.8820961956
 H          2.1497638263       -0.3537524619       -0.0005391751
 H          1.2882848317        0.9084443393        0.8819727530
 H          1.2876795385        0.9092468099       -0.8814606836
