  11
    -1.781871 !GC
 C          0.0000000000        0.0000000000        0.0000000000
 C          1.5222217319        0.0000000000        0.0000000000
 O          2.0455019617        1.3462481646        0.0000000000
 C          1.7420174176        2.1545076320        0.9797881257
 O          1.0657476429        1.9171164678        1.9485293701
 H         -0.3572410435       -1.0201076916       -0.0957684037
 H         -0.3733679014        0.4187959793        0.9317465760
 H         -0.3793207782        0.5921577674       -0.8287772251
 H          1.9102579041       -0.4279853642       -0.9235662217
 H          1.9105974989       -0.5259991108        0.8761583414
 H          2.2051539518        3.1359974389        0.7944324633
  11
    -1.251795 !GC
 C          0.0000000000        0.0000000000        0.0000000000
 C          1.5224678811        0.0000000000        0.0000000000
 O          2.0770994285        1.3330034965        0.0000000000
 C          1.5611211717        2.2025886570        0.8307780172
 O          0.6796799519        2.0080009583        1.6274547213
 H         -0.3540796444       -1.0232432300       -0.0829163042
 H         -0.3785621425        0.4346849647        0.9225658508
 H         -0.3763454022        0.5757617510       -0.8412185961
 H          1.9249434067       -0.4258363263       -0.9160262688
 H          1.8900602247       -0.5292591617        0.8834146503
 H          2.0821924531        3.1665877217        0.7246181170
  11
    -0.981589 !GC
 C          0.0000000000        0.0000000000        0.0000000000
 C          1.5232467019        0.0000000000        0.0000000000
 O          2.0842550910        1.3303716102        0.0000000000
 C          1.4755695501        2.2500320638        0.7038975791
 O          0.5059052397        2.1069844992        1.4041576969
 H         -0.3617677525       -1.0192969096       -0.0918700697
 H         -0.3765799990        0.4240388147        0.9281812549
 H         -0.3717930259        0.5927152047       -0.8328676693
 H          1.9235022579       -0.4180456167       -0.9200314900
 H          1.8889848497       -0.5323259819        0.8821298293
 H          2.0372886532        3.1950856608        0.6355791887
  11
    -0.858089 !GC
 C          0.0000000000        0.0000000000        0.0000000000
 C          1.5204535197        0.0000000000        0.0000000000
 O          2.0350514482        1.3497251369        0.0000000000
 C          2.2996706184        1.9128027591       -1.1485375882
 O          2.1083673689        1.4526171502       -2.2457620763
 H         -0.3583897453        0.6841088944       -0.7620283414
 H         -0.3918271197       -0.9954523118       -0.2035251834
 H         -0.3581769495        0.3291309189        0.9697237686
 H          1.9273566683       -0.3711007647       -0.9365788787
 H          1.8990546590       -0.5890589923        0.8443997472
 H          2.7088906220        2.9203408679       -0.9776028832
  11
    -0.622960 !GC
 C          0.0000000000        0.0000000000        0.0000000000
 C          1.5241592584        0.0000000000        0.0000000000
 O          2.0907661084        1.3277918084        0.0000000000
 C          3.2773966148        1.4962527923        0.5245572257
 O          3.9827212226        0.6565261639        1.0224010756
 H         -0.3582142565       -1.0238140138       -0.0279372494
 H         -0.3797489098        0.4816648508        0.8991344382
 H         -0.3733060205        0.5290793446       -0.8740397163
 H          1.8983873064       -0.4618565989       -0.9129878891
 H          1.9112644369       -0.4840371147        0.8967083634
 H          3.5570462903        2.5592417453        0.4575493028
  11
    -0.535226 !GC
 C          0.0000000000        0.0000000000        0.0000000000
 C          1.5244103281        0.0000000000        0.0000000000
 O          2.0948893920        1.3263452100        0.0000000000
 C          1.3506200786        2.3252353139        0.3994052593
 O          0.2238509611        2.2758739684        0.8211987385
 H         -0.3578384826       -1.0197935151       -0.1118789012
 H         -0.3781060614        0.4101838302        0.9339839367
 H         -0.3755744616        0.5985505152       -0.8251311326
 H          1.9192845039       -0.4078361009       -0.9262334984
 H          1.8880054911       -0.5365794965        0.8799981751
 H          1.9312060154        3.2587954625        0.3359891624
  11
    -0.484670 !GC
 C          0.0000000000        0.0000000000        0.0000000000
 C          1.5241696040        0.0000000000        0.0000000000
 O          2.0907702967        1.3278361362        0.0000000000
 C          1.3948891596        2.2994815547       -0.5322114196
 O          0.2844515364        2.2356311772       -0.9945144471
 H         -0.3752589869        0.6424835610       -0.7916421531
 H         -0.3624679165       -1.0108434445       -0.1668557679
 H         -0.3737309199        0.3590075470        0.9564807326
 H          1.9079175749       -0.3882270014       -0.9388957635
 H          1.9017491004       -0.5550442793        0.8631737768
 H          1.9670311842        3.2380951582       -0.4599526490
  11
    -0.475542 !GC
 C          0.0000000000        0.0000000000        0.0000000000
 C          1.5224249848        0.0000000000        0.0000000000
 O          2.0746616414        1.3339400818        0.0000000000
 C          3.0341521673        1.5920158179       -0.8516929336
 O          3.5283791252        0.8273464406       -1.6397093762
 H         -0.3362511785        0.4652753636       -0.9187417262
 H         -0.3796508920       -1.0186772943        0.0489094558
 H         -0.3926239020        0.5598946952        0.8478798685
 H          1.9156356886       -0.4983242055       -0.8871995256
 H          1.9000436992       -0.4563448403        0.9150976639
 H          3.3392839387        2.6452571093       -0.7534579165
  11
    -0.381317 !GC
 C          0.0000000000        0.0000000000        0.0000000000
 C          1.5231831144        0.0000000000        0.0000000000
 O          2.0849891222        1.3300234737        0.0000000000
 C          3.1658676081        1.5366280396       -0.7075092641
 O          3.7652326195        0.7304638433       -1.3718350342
 H         -0.3614600133        0.4734092490       -0.9073171553
 H         -0.3935124574       -1.0159173462        0.0430675188
 H         -0.3549769362        0.5501545237        0.8654029180
 H          1.9133737127       -0.4905386970       -0.8921517728
 H          1.8986004689       -0.4606209756        0.9136461387
 H          3.4554614847        2.5963612122       -0.6334192676
  11
    -0.304939 !GC
 C          0.0000000000        0.0000000000        0.0000000000
 C          1.5250034330        0.0000000000        0.0000000000
 O          2.0965143860        1.3257975891        0.0000000000
 C          1.3064550740        2.3558295777        0.1606689712
 O          0.1188873619        2.3486621205        0.3612873128
 H         -0.3608833643       -1.0165393978       -0.1217762859
 H         -0.3749016692        0.3959909646        0.9411265434
 H         -0.3759541022        0.6181604819       -0.8128556878
 H          1.9156249601       -0.4004549468       -0.9311468266
 H          1.8907042163       -0.5398212021        0.8771413988
 H          1.9096368451        3.2775945227        0.1494370308
  11
    -0.267972 !GC
 C          0.0000000000        0.0000000000        0.0000000000
 C          1.5252012608        0.0000000000        0.0000000000
 O          2.0973926245        1.3254721964        0.0000000000
 C          1.3010238548        2.3606622476       -0.0724147825
 O          0.0967057486        2.3643573596       -0.0924381824
 H         -0.3743247449        0.6196334835       -0.8100886636
 H         -0.3607341956       -1.0159982913       -0.1387561714
 H         -0.3770214429        0.3868878915        0.9447510444
 H          1.9116696565       -0.3956537581       -0.9345732238
 H          1.8939601269       -0.5435738164        0.8737023802
 H          1.9050515866        3.2817369661       -0.0515319805
  11
    -0.230333 !GC
 C          0.0000000000        0.0000000000        0.0000000000
 C          1.5243674318        0.0000000000        0.0000000000
 O          2.0924628551        1.3273102711        0.0000000000
 C          3.3190552882        1.4814497877       -0.4277345023
 O          4.0644340588        0.6290564992       -0.8379098996
 H         -0.3400122403        0.4908936754       -0.9046072516
 H         -0.3791948685       -1.0198601775        0.0219040591
 H         -0.3918510840        0.5364796445        0.8628735516
 H          1.9099342783       -0.4809926252       -0.8987651607
 H          1.8980104246       -0.4638740326        0.9123160324
 H          3.5904430184        2.5473927863       -0.3753538073
  11
    -0.215725 !GC
 C          0.0000000000        0.0000000000        0.0000000000
 C          1.5251909152        0.0000000000        0.0000000000
 O          2.0973882502        1.3254278429        0.0000000000
 C          3.3974039663        1.4557316848        0.0638950293
 O          4.2238178841        0.5817203134        0.1233954300
 H         -0.3572757150       -1.0245249126        0.0015544190
 H         -0.3780274729        0.5069889868        0.8861816878
 H         -0.3765965778        0.5026091069       -0.8886799894
 H          1.9021596502       -0.4689977087       -0.9081074020
 H          1.9035320589       -0.4719287590        0.9063522070
 H          3.6533411850        2.5267167761        0.0488132856
  11
    -0.183909 !GC
 C          0.0000000000        0.0000000000        0.0000000000
 C          1.5250359837        0.0000000000        0.0000000000
 O          2.0989339208        1.3247820324        0.0000000000
 C          1.3074635902        2.3568909770        0.1390502102
 O          0.1160065019        2.3523355179        0.3127515578
 H         -0.3616074626        0.6182762075       -0.8173328856
 H         -0.3910528150       -1.0084341390       -0.1264998619
 H         -0.3592148916        0.4028489078        0.9417766144
 H          1.9155203269       -0.4000930655       -0.9312362956
 H          1.8903028457       -0.5404828230        0.8768744863
 H          1.9088140851        3.2789784143        0.1104109640
  11
    -0.177578 !GC
 C          0.0000000000        0.0000000000        0.0000000000
 C          1.5224792360        0.0000000000        0.0000000000
 O          2.0751499296        1.3337772469        0.0000000000
 C          3.0378229047        1.5903688486       -0.8484976427
 O          3.5320706742        0.8255729067       -1.6363099350
 H         -0.3538153683        0.5682121051        0.8551986635
 H         -0.3617385230        0.4695847946       -0.9105810147
 H         -0.3932849563       -1.0131548329        0.0554391013
 H          1.9157158961       -0.4987049011       -0.8870113222
 H          1.8999249649       -0.4563701348        0.9151702402
 H          3.3381701116        2.6455121046       -0.7556398835
  11
    -0.153971 !GC
 C          0.0000000000        0.0000000000        0.0000000000
 C          1.5244216830        0.0000000000        0.0000000000
 O          2.0929491865        1.3271422750        0.0000000000
 C          3.3211067635        1.4803459495       -0.4234656688
 O          4.0664501464        0.6278186746       -0.8332956314
 H         -0.3575746098        0.5433239392        0.8704162811
 H         -0.3612791754        0.4936629497       -0.8980252702
 H         -0.3925127785       -1.0142825602        0.0276958594
 H          1.9100143106       -0.4813778313       -0.8985845670
 H          1.8978914938       -0.4638995793        0.9123878130
 H          3.5902832234        2.5472228243       -0.3783783586
  11
    -0.148848 !GC
 C          0.0000000000        0.0000000000        0.0000000000
 C          1.5252249800        0.0000000000        0.0000000000
 O          2.0989797396        1.3248346987        0.0000000000
 C          1.3044168227        2.3600933161       -0.0906852101
 O          0.1008907548        2.3636750201       -0.1355297189
 H         -0.3576776892       -1.0160679115       -0.1303996886
 H         -0.3777019748        0.3812774222        0.9483429547
 H         -0.3771028067        0.6186405252       -0.8104806214
 H          1.9114590368       -0.3950837109       -0.9347907283
 H          1.8940456679       -0.5443250787        0.8732621214
 H          1.9096108784        3.2802020924       -0.0894451964
  11
    -0.128832 !GC
 C          0.0000000000        0.0000000000        0.0000000000
 C          1.5249398455        0.0000000000        0.0000000000
 O          2.0972455811        1.3254431563        0.0000000000
 C          3.3879740878        1.4577858110       -0.1651889421
 O          4.2033878833        0.5855674300       -0.3212140693
 H         -0.3605756383        0.5000062051       -0.8933697293
 H         -0.3918396078       -1.0173702112        0.0123194058
 H         -0.3591441396        0.5219825247        0.8815534791
 H          1.9054335647       -0.4736653482       -0.9045617916
 H          1.9003157991       -0.4684181648        0.9092697578
 H          3.6459211412        2.5281991357       -0.1464853080
  11
    -0.121047 !GC
 C          0.0000000000        0.0000000000        0.0000000000
 C          1.5249930874        0.0000000000        0.0000000000
 O          2.0965100353        1.3257532386        0.0000000000
 C          3.3867108271        1.4591479581       -0.1691119890
 O          4.2020413915        0.5877296355       -0.3306106331
 H         -0.3437895356        0.5244520162        0.8844044327
 H         -0.3921425782        0.5024642238       -0.8834370468
 H         -0.3755292026       -1.0211159321        0.0175897344
 H          1.9061407418       -0.4735782427       -0.9043408806
 H          1.9002956885       -0.4679681923        0.9095038862
 H          3.6436434034        2.5298397071       -0.1521996558
  11
    -0.108874 !GC
 C          0.0000000000        0.0000000000        0.0000000000
 C          1.5250473387        0.0000000000        0.0000000000
 O          2.0969959043        1.3255841285        0.0000000000
 C          3.3878054097        1.4584270767       -0.1646069766
 O          4.2030107105        0.5868770855       -0.3256938996
 H         -0.3613441077       -1.0248038342        0.0201733664
 H         -0.3742690155        0.5158806464        0.8813541603
 H         -0.3762118430        0.4994207807       -0.8892405274
 H          1.9062206747       -0.4739656451       -0.9041635697
 H          1.9001768861       -0.4679942182        0.9095757899
 H          3.6441238078        2.5294005669       -0.1554721314
  11
    -0.094764 !GC
 C          0.0000000000        0.0000000000        0.0000000000
 C          1.5244014965        0.0000000000        0.0000000000
 O          2.0940563065        1.3267219473        0.0000000000
 C          1.3503438219        2.3247858853        0.4027615049
 O          0.2242077845        2.2745039405        0.8267895159
 H         -0.3404158067        0.6032476180       -0.8337507547
 H         -0.3788711032       -1.0144031994       -0.1181117917
 H         -0.3923379156        0.4128278175        0.9269084697
 H          1.9191785316       -0.4076319448       -0.9263674312
 H          1.8884924973       -0.5366733706        0.8798292990
 H          1.9299009910        3.2589231059        0.3375556214
  11
    -0.090812 !GC
 C          0.0000000000        0.0000000000        0.0000000000
 C          1.5213879028        0.0000000000        0.0000000000
 O          2.0396849754        1.3481081255        0.0000000000
 C          1.2906917136        2.3120133018        0.4646354853
 O          0.1857171995        2.2179550721        0.9364362832
 H         -0.3716250677        0.6225032318       -0.8085043616
 H         -0.3609296956       -1.0150494888       -0.1424737906
 H         -0.3771017038        0.3863452688        0.9429515878
 H          1.9025224890       -0.4159151109       -0.9316608883
 H          1.9215608754       -0.5411009278        0.8622205683
 H          1.8156522394        3.2720312486        0.3425096141
  11
    -0.087142 !GC
 C          0.0000000000        0.0000000000        0.0000000000
 C          1.5204446881        0.0000000000        0.0000000000
 O          2.0342028980        1.3500671287        0.0000000000
 C          2.2951815622        1.9147081083       -1.1486960410
 O          2.1020279619        1.4552406308       -2.2461506184
 H         -0.3409943937        0.3252363861        0.9744098046
 H         -0.3926077078        0.6794071820       -0.7570408750
 H         -0.3749935464       -0.9999381046       -0.1995897359
 H          1.9272511689       -0.3708931768       -0.9367057272
 H          1.8995420873       -0.5891380328        0.8442196222
 H          2.7054709597        2.9218457028       -0.9776298362
  11
    -0.085688 !GC
 C          0.0000000000        0.0000000000        0.0000000000
 C          1.5251376733        0.0000000000        0.0000000000
 O          2.0981236183        1.3251173558        0.0000000000
 C          3.3979250627        1.4546830491        0.0678410025
 O          4.2234028356        0.5802974302        0.1328420005
 H         -0.3740164186        0.5127659607        0.8815910186
 H         -0.3777097623        0.5095281493       -0.8860027270
 H         -0.3602136044       -1.0242113094        0.0027258211
 H          1.9014517176       -0.4690823029       -0.9083264400
 H          1.9035521708       -0.4723770580        0.9061159267
 H          3.6545167814        2.5255310549        0.0545888508
  11
    -0.064228 !GC
 C          0.0000000000        0.0000000000        0.0000000000
 C          1.5252451665        0.0000000000        0.0000000000
 O          2.0978740222        1.3252585113        0.0000000000
 C          3.3976478616        1.4553740729        0.0684194323
 O          4.2238701926        0.5812724678        0.1283494542
 H         -0.3748008504        0.5020821493       -0.8891170848
 H         -0.3600993788       -1.0256016129       -0.0045607085
 H         -0.3772778958        0.5129060266        0.8811796035
 H          1.9022394880       -0.4693866144       -0.9079321516
 H          1.9034134577       -0.4719553796        0.9064244352
 H          3.6544106730        2.5260624951        0.0455036271
  11
    -0.052771 !GC
 C          0.0000000000        0.0000000000        0.0000000000
 C          1.5204209690        0.0000000000        0.0000000000
 O          2.0325877976        1.3506338630        0.0000000000
 C          2.2759208679        1.9226174282       -1.1488286148
 O          2.0605710440        1.4728041817       -2.2462874057
 H         -0.3576688232       -1.0019786222       -0.2064261809
 H         -0.3756794726        0.3224450266        0.9684966524
 H         -0.3749101077        0.6786889063       -0.7627156041
 H          1.9274622925       -0.3714621622       -0.9364985164
 H          1.8994561758       -0.5884106504        0.8446989596
 H          2.6666602699        2.9378065053       -0.9772378083
  11
    -0.035442 !GC
 C          0.0000000000        0.0000000000        0.0000000000
 C          1.5243141898        0.0000000000        0.0000000000
 O          2.0931992487        1.3270022247        0.0000000000
 C          3.3211570203        1.4797750431       -0.4240234630
 O          4.0677795308        0.6261287080       -0.8290459343
 H         -0.3568106275       -1.0244382579        0.0287949520
 H         -0.3788788147        0.5343927891        0.8702192854
 H         -0.3755064759        0.4862620289       -0.8961170117
 H          1.9092280017       -0.4810830786       -0.8989877593
 H          1.8980305405       -0.4643254635        0.9120840353
 H          3.5939490329        2.5452709259       -0.3699628301
  11
    -0.028512 !GC
 C          0.0000000000        0.0000000000        0.0000000000
 C          1.5232792527        0.0000000000        0.0000000000
 O          2.0866827543        1.3293749620        0.0000000000
 C          1.4668722300        2.2547828646        0.6864658490
 O          0.4815002919        2.1188500629        1.3652785891
 H         -0.3624927458        0.5938140358       -0.8348088474
 H         -0.3927238472       -1.0111887199       -0.0958745823
 H         -0.3550483489        0.4328766921        0.9294290591
 H          1.9233970069       -0.4176871754       -0.9201290253
 H          1.8885833339       -0.5329901260        0.8818685906
 H          2.0190877572        3.2038637055        0.6045599433
  11
    -0.024834 !GC
 C          0.0000000000        0.0000000000        0.0000000000
 C          1.5215960762        0.0000000000        0.0000000000
 O          2.0413988956        1.3476806564        0.0000000000
 C          1.9567952928        2.0604365373        1.0910662669
 O          1.5029690104        1.7219206655        2.1549252152
 H         -0.3534738143        0.4412608752        0.9258747000
 H         -0.3603752409        0.5870347100       -0.8403244439
 H         -0.3956034323       -1.0099599867       -0.0823562039
 H          1.9140401111       -0.4356245696       -0.9183404082
 H          1.9083140273       -0.5221123008        0.8792483102
 H          2.3764492752        3.0610888987        0.9047650973
  11
    -0.023726 !GC
 C          0.0000000000        0.0000000000        0.0000000000
 C          1.5241060164        0.0000000000        0.0000000000
 O          2.0915027573        1.3274846472        0.0000000000
 C          3.2764811603        1.4958975388        0.5280772000
 O          3.9788845337        0.6567251921        1.0307541689
 H         -0.3749506355        0.4870034943        0.8956857568
 H         -0.3794333384        0.5335213618       -0.8706673449
 H         -0.3569194859       -1.0245256832       -0.0276159118
 H          1.8976786941       -0.4619385356       -0.9132060748
 H          1.9112845503       -0.4844802990        0.8964655432
 H          3.5560256481        2.5590159359        0.4627804404
  11
    -0.019154 !GC
 C          0.0000000000        0.0000000000        0.0000000000
 C          1.5204560430        0.0000000000        0.0000000000
 O          2.0322295254        1.3507810675        0.0000000000
 C          2.2363838486        1.9379851808        1.1488546926
 O          2.0634201328        1.4706877897        2.2465282095
 H         -0.3407291811        0.5642002379       -0.8586339036
 H         -0.3758084034       -1.0190931896       -0.0786809211
 H         -0.3919357853        0.4486440992        0.9104284408
 H          1.9180669028       -0.4451512622       -0.9120931740
 H          1.9093708563       -0.5185983743        0.8808503070
 H          2.6169030399        2.9567438885        0.9775590975
  11
    -0.018996 !GC
 C          0.0000000000        0.0000000000        0.0000000000
 C          1.5204885938        0.0000000000        0.0000000000
 O          2.0346935532        1.3498728701        0.0000000000
 C          2.2191476939        1.9438715952        1.1487087912
 O          2.0197179829        1.4856353565        2.2453237586
 H         -0.3414329434        0.4575581212        0.9210683294
 H         -0.3919766627        0.5745717861       -0.8396327701
 H         -0.3752504662       -1.0166013099       -0.0596036386
 H          1.9179615926       -0.4447940417       -0.9122008801
 H          1.9089719068       -0.5192649561        0.8806075698
 H          2.5844575718        2.9678664401        0.9782014169
  11
    -0.014841 !GC
 C          0.0000000000        0.0000000000        0.0000000000
 C          1.5232308050        0.0000000000        0.0000000000
 O          2.0560596328        1.3425209300        0.0000000000
 C          1.4729093224        2.2737602922        0.7052442887
 O          0.5159972748        2.1642364013        1.4300792415
 H         -0.3790675678        0.4022516906        0.9356549261
 H         -0.3734194525        0.6156333908       -0.8158374681
 H         -0.3591046253       -1.0173551495       -0.1188084828
 H          1.9047310732       -0.4149855360       -0.9311652159
 H          1.9123703330       -0.5334406474        0.8712190583
 H          2.0080474189        3.2247800530        0.5577727772
  11
    -0.012369 !GC
 C          0.0000000000        0.0000000000        0.0000000000
 C          1.5224353304        0.0000000000        0.0000000000
 O          2.0746653487        1.3339843409        0.0000000000
 C          1.5724277177        2.1970662316        0.8458226977
 O          0.7095943823        1.9944267854        1.6611789621
 H         -0.3533631170        0.4438069749        0.9245573159
 H         -0.3623727489        0.5846414940       -0.8411222458
 H         -0.3930481175       -1.0124272620       -0.0850246864
 H          1.9250488351       -0.4261936331       -0.9159252683
 H          1.8904615599       -0.5285938661        0.8836722752
 H          2.1049788950        3.1564607046        0.7512298173
  11
    -0.011577 !GC
 C          0.0000000000        0.0000000000        0.0000000000
 C          1.5242021547        0.0000000000        0.0000000000
 O          2.0931934527        1.3268294199        0.0000000000
 C          1.4079799830        2.2951399307       -0.5518030626
 O          0.3084641072        2.2273376537       -1.0381023850
 H         -0.3759975107        0.3601318300        0.9549212712
 H         -0.3786599898        0.6466428740       -0.7888473584
 H         -0.3569905712       -1.0120571442       -0.1605745167
 H          1.9078133714       -0.3878627432       -0.9389796084
 H          1.9013489098       -0.5557010708        0.8628994191
 H          1.9883879256        3.2293022308       -0.4960033959
  11
    -0.011212 !GC
 C          0.0000000000        0.0000000000        0.0000000000
 C          1.5212762462        0.0000000000        0.0000000000
 O          2.0427761045        1.3470881934        0.0000000000
 C          2.0768893303        2.0059970105        1.1269402829
 O          1.7464466927        1.6087960016        2.2161510613
 H         -0.3665234711        0.5785183272       -0.8425551730
 H         -0.3892200749       -1.0134528560       -0.0834673427
 H         -0.3538682028        0.4436218163        0.9246032480
 H          1.9166196732       -0.4372378026       -0.9162169129
 H          1.9074213720       -0.5222500045        0.8795652299
 H          2.5030243855        3.0062068569        0.9531404735
  11
    -0.010750 !GC
 C          0.0000000000        0.0000000000        0.0000000000
 C          1.5241933231        0.0000000000        0.0000000000
 O          2.0923600431        1.3272052323        0.0000000000
 C          1.4050054694        2.2958912051       -0.5486660795
 O          0.3043898144        2.2279297619       -1.0330226141
 H         -0.3586161149       -1.0115646028       -0.1595505388
 H         -0.3794256503        0.3543879799        0.9577175051
 H         -0.3738160598        0.6428283487       -0.7923827674
 H          1.9077069998       -0.3876542870       -0.9391081535
 H          1.9018348547       -0.5557866393        0.8627231868
 H          1.9856788355        3.2300430911       -0.4944501607
  11
    -0.009721 !GC
 C          0.0000000000        0.0000000000        0.0000000000
 C          1.5206628286        0.0000000000        0.0000000000
 O          2.0339712650        1.3501449328        0.0000000000
 C          2.0188386074        2.0223588726        1.1198801590
 O          1.6396825470        1.6362199945        2.1968819549
 H         -0.3715712750        0.5744496313       -0.8432717795
 H         -0.3608805024       -1.0219539093       -0.0833013702
 H         -0.3762343136        0.4435010402        0.9178004122
 H          1.9142111464       -0.4407257320       -0.9156334829
 H          1.9121220315       -0.5222618618        0.8776241090
 H          2.4289920819        3.0295260359        0.9485932226
  11
    -0.008823 !GC
 C          0.0000000000        0.0000000000        0.0000000000
 C          1.5232704211        0.0000000000        0.0000000000
 O          2.0858476675        1.3297473019        0.0000000000
 C          1.4674640155        2.2540654486        0.6893705770
 O          0.4833022653        2.1170808392        1.3701339088
 H         -0.3450818873        0.4335041984        0.9318264124
 H         -0.3935054550        0.5943652672       -0.8250936629
 H         -0.3718805358       -1.0169664045       -0.0900828432
 H          1.9232911955       -0.4174850977       -0.9202655739
 H          1.8890703296       -0.5330842003        0.8816994046
 H          2.0182901215        3.2038760210        0.6058842981
  11
    -0.008539 !GC
 C          0.0000000000        0.0000000000        0.0000000000
 C          1.5224195597        0.0000000000        0.0000000000
 O          2.0463918646        1.3459475433        0.0000000000
 C          1.5704758244        2.2234077768        0.8420390406
 O          0.7247356605        2.0551781432        1.6839166813
 H         -0.3706900500        0.5991668379       -0.8263711823
 H         -0.3591947360       -1.0195236421       -0.1142444620
 H         -0.3803857540        0.4137884736        0.9304171274
 H          1.9062864770       -0.4232545651       -0.9271251658
 H          1.9138325776       -0.5297210774        0.8727234187
 H          2.0639638385        3.1925510207        0.6703866598
  11
    -0.007549 !GC
 C          0.0000000000        0.0000000000        0.0000000000
 C          1.5210905303        0.0000000000        0.0000000000
 O          2.0371893415        1.3490261904        0.0000000000
 C          1.9970076141        2.0391533696        1.1081594701
 O          1.5843414302        1.6771776948        2.1810540592
 H         -0.3618893796        0.5799187663       -0.8429235331
 H         -0.3880014650       -1.0134902314       -0.0873053795
 H         -0.3588049458        0.4392402804        0.9256629426
 H          1.9143965743       -0.4377935864       -0.9172774491
 H          1.9111688874       -0.5224048700        0.8779511104
 H          2.4181826279        3.0404281477        0.9292636668
  11
    -0.005419 !GC
 C          0.0000000000        0.0000000000        0.0000000000
 C          1.5230329772        0.0000000000        0.0000000000
 O          2.0551716965        1.3428261047        0.0000000000
 C          1.6204572980        2.2129954255        0.8708490280
 O          0.8132862129        2.0407049002        1.7492976620
 H         -0.3656405715        0.6032113167       -0.8255311342
 H         -0.3875472414       -1.0110677812       -0.1141586248
 H         -0.3580351842        0.4137331516        0.9373022755
 H          1.9087030452       -0.4197537087       -0.9276572575
 H          1.9091336243       -0.5297258198        0.8746642490
 H          2.1283518356        3.1753300657        0.7021623047
  11
    -0.003465 !GC
 C          0.0000000000        0.0000000000        0.0000000000
 C          1.5242135096        0.0000000000        0.0000000000
 O          2.0912525789        1.3276242967        0.0000000000
 C          3.2759830493        1.4966464415        0.5285804984
 O          3.9809914175        0.6569261668        1.0267748331
 H         -0.3757361825        0.5272956242       -0.8739945145
 H         -0.3618335850       -1.0241705662       -0.0330984142
 H         -0.3739911498        0.4869456516        0.8966264170
 H          1.8984670835       -0.4622473996       -0.9128157629
 H          1.9111464204       -0.4840655374        0.8967814783
 H          3.5592383841        2.5582599550        0.4546327824
  11
    -0.002965 !GC
 C          0.0000000000        0.0000000000        0.0000000000
 C          1.5243777773        0.0000000000        0.0000000000
 O          2.0924670891        1.3273546064        0.0000000000
 C          1.3542054046        2.3223234700        0.4197790710
 O          0.2370471348        2.2680722265        0.8667941084
 H         -0.3571181776        0.4170830051        0.9361694147
 H         -0.3619135278        0.6068650181       -0.8255255812
 H         -0.3922752422       -1.0097116896       -0.1126940389
 H          1.9193894120       -0.4081964273       -0.9261404600
 H          1.8884070681       -0.5359166013        0.8802627222
 H          1.9402786262        3.2539059801        0.3726036347
  11
    -0.002537 !GC
 C          0.0000000000        0.0000000000        0.0000000000
 C          1.5232906076        0.0000000000        0.0000000000
 O          2.0847383165        1.3301616167        0.0000000000
 C          3.1659413196        1.5371008037       -0.7070213727
 O          3.7628317364        0.7324849644       -1.3755142434
 H         -0.3622295504       -1.0233922682        0.0502083416
 H         -0.3759476418        0.5419979849        0.8648464740
 H         -0.3720556514        0.4714943673       -0.9055305421
 H          1.9141592174       -0.4908265783       -0.8917425022
 H          1.8984614717       -0.4601942149        0.9139485468
 H          3.4497759364        2.5989434502       -0.6405983287
  11
    -0.001686 !GC
 C          0.0000000000        0.0000000000        0.0000000000
 C          1.5221991482        0.0000000000        0.0000000000
 O          2.0493668718        1.3447188565        0.0000000000
 C          1.2545038560        2.3398531273        0.2882168063
 O          0.0927549752        2.2844482905        0.6050886155
 H         -0.3800004752        0.3750144964        0.9465230951
 H         -0.3751439811        0.6375401017       -0.7976463337
 H         -0.3558107567       -1.0140639465       -0.1489743019
 H          1.9009661623       -0.4076007427       -0.9356296548
 H          1.9201033924       -0.5447983763        0.8606835153
 H          1.8107708815        3.2860293823        0.2000360543
  11
    -0.001678 !GC
 C          0.0000000000        0.0000000000        0.0000000000
 C          1.5206730480        0.0000000000        0.0000000000
 O          2.0347944281        1.3500191896        0.0000000000
 C          3.0525004147        1.6311994580        0.7687440595
 O          3.6518903716        0.8752016465        1.4910662049
 H         -0.3399241467        0.5240190591       -0.8858543032
 H         -0.3744928805       -1.0208667351       -0.0180170449
 H         -0.3936791535        0.4966329388        0.8840078274
 H          1.9296364631       -0.4643945046       -0.8978529624
 H          1.8955891791       -0.4988748910        0.8974240203
 H          3.3311439621        2.6878252074        0.6353970942
  11
    -0.000711 !GC
 C          0.0000000000        0.0000000000        0.0000000000
 C          1.5252338115        0.0000000000        0.0000000000
 O          2.0998115806        1.3244554147        0.0000000000
 C          1.3061233340        2.3599652241       -0.0942281773
 O          0.1029185736        2.3641155870       -0.1413923443
 H         -0.3750623310        0.3876102511        0.9444770114
 H         -0.3769383243        0.6249904899       -0.8072931972
 H         -0.3602841811       -1.0156898509       -0.1304547987
 H          1.9115652942       -0.3952907340       -0.9346603021
 H          1.8935590571       -0.5442342636        0.8734336930
 H          1.9116356196        3.2797979430       -0.0911144808
  11
    -0.000171 !GC
 C          0.0000000000        0.0000000000        0.0000000000
 C          1.5250271521        0.0000000000        0.0000000000
 O          2.0981018651        1.3251608940        0.0000000000
 C          1.3064242080        2.3567321614        0.1425840604
 O          0.1150808867        2.3514332165        0.3186276800
 H         -0.3441927617        0.4061267957        0.9444768210
 H         -0.3918325202        0.6194301818       -0.8072217557
 H         -0.3760367442       -1.0125722399       -0.1221138109
 H          1.9154142006       -0.3998872208       -0.9313681431
 H          1.8907896828       -0.5405753743        0.8767045288
 H          1.9071268600        3.2792432548        0.1120560586
  11
    -0.000105 !GC
 C          0.0000000000        0.0000000000        0.0000000000
 C          1.5223717429        0.0000000000        0.0000000000
 O          2.0754016233        1.3336414678        0.0000000000
 C          3.0376928048        1.5899565882       -0.8489258424
 O          3.5350375097        0.8234807885       -1.6330848419
 H         -0.3530558272       -1.0238869692        0.0579265447
 H         -0.3793354018        0.5571312773        0.8555482003
 H         -0.3762775051        0.4615704571       -0.9091069853
 H          1.9149305151       -0.4984216133       -0.8874244812
 H          1.9000638383       -0.4567975393        0.9148691391
 H          3.3448835292        2.6424817994       -0.7494910798
  11
    -0.000056 !GC
 C          0.0000000000        0.0000000000        0.0000000000
 C          1.5212987037        0.0000000000        0.0000000000
 O          2.0389039193        1.3486013567        0.0000000000
 C          2.8707268472        1.7082712127        0.9403351216
 O          3.2969061748        1.0301773211        1.8408449518
 H         -0.3437014990        0.4914000231        0.9032113254
 H         -0.3874480980        0.5371547444       -0.8639498577
 H         -0.3773880850       -1.0188288144       -0.0276876293
 H          1.9258751075       -0.4570165620       -0.9033795724
 H          1.8978798100       -0.5028751239        0.8944529316
 H          3.1745067349        2.7536835009        0.7767374170
