  11
  -17.6157671600000       0.152795274551138      !
 C          1.8329643277        0.5808721690        0.3565332451
 C          0.9824234967       -0.2555433805       -0.5862370282
 O         -0.0891758306       -0.9060429484        0.1313076984
 C         -1.2231374795       -0.2715743034        0.2638407950
 O         -1.5029329410        0.8177900503       -0.1691873124
 H          2.6663068586        1.0049037080       -0.1939241867
 H          1.2405593275        1.3899269322        0.7778112772
 H          2.2145369377       -0.0366625643        1.1649180404
 H          1.5577746478       -1.0723741720       -1.0220976952
 H          0.5456445701        0.3678020782       -1.3714168645
 H         -1.9261440372       -0.8932706072        0.8392056308
  11
  -17.6157671600000       0.152795274551138      !
 C          1.8344573222        0.5799921372        0.3565396820
 C          0.9821784939       -0.2546629327       -0.5861768026
 O         -0.0890652099       -0.9054496949        0.1316855015
 C         -1.2234771853       -0.2717156133        0.2637915456
 O         -1.5039623789        0.8173189079       -0.1696380803
 H          2.2162179114       -0.0384528877        1.1641717544
 H          2.6675402220        1.0037756797       -0.1943656486
 H          1.2429337307        1.3890306971        0.7791533516
 H          1.5564932857       -1.0712476085       -1.0238646243
 H          0.5450485380        0.3701785277       -1.3699612468
 H         -1.9257939060       -0.8932184393        0.8403133160
  11
  -17.6157671200000       0.152788807201199      !
 C          1.8322713952        0.5814056550        0.3564462287
 C          0.9825634171       -0.2560211535       -0.5861614393
 O         -0.0893002076       -0.9064080072        0.1311013109
 C         -1.2230335142       -0.2715577870        0.2637613447
 O         -1.5023602711        0.8180604047       -0.1688910809
 H          1.2393434078        1.3905897655        0.7767464779
 H          2.2134867651       -0.0354402933        1.1655151229
 H          2.6658458414        1.0052849540       -0.1937830997
 H          1.5584290585       -1.0729706334       -1.0211166341
 H          0.5461001607        0.3666779515       -1.3720207361
 H         -1.9262919512       -0.8931737866        0.8388118550
  11
  -17.6157649800000       0.152443202764893      !
 C          1.8367942155        0.5913229660       -0.3348862889
 C          0.9818457635       -0.2750906271        0.5762629310
 O         -0.0886960376       -0.8985159281       -0.1664262319
 C         -1.2239137540       -0.2616137738       -0.2739359388
 O         -1.5059049897        0.8093932346        0.2014081505
 H          2.2174629092        0.0014262793       -1.1640823788
 H          1.2479868302        1.4169276675       -0.7281601554
 H          2.6707273178        0.9925672106        0.2315698732
 H          0.5438077699        0.3219460757        1.3809340678
 H          1.5544692516       -1.1073607582        0.9857870989
 H         -1.9257181735       -0.8616709998       -0.8733487833
  11
  -17.6157648300000       0.152419007493292      !
 C          1.8355921091        0.5922700016       -0.3346712616
 C          0.9821023439       -0.2762117168        0.5759183599
 O         -0.0887838719       -0.8988497875       -0.1668803476
 C         -1.2237550895       -0.2613811053       -0.2738428895
 O         -1.5050218982        0.8096492597        0.2018608575
 H          1.2460526824        1.4184218212       -0.7257008183
 H          2.6698672270        0.9927543885        0.2317679234
 H          2.2157749315        0.0042766291       -1.1654606220
 H          0.5444745309        0.3190420595        1.3821511557
 H          1.5555178839       -1.1089853031        0.9833034558
 H         -1.9261984216       -0.8611370849       -0.8729041400
  11
  -17.6157646700000       0.152393203436772      !
 C          1.8399214158        0.5889926392       -0.3351118075
 C          0.9812305486       -0.2726231798        0.5771704165
 O         -0.0883949421       -0.8974428335       -0.1656072465
 C         -1.2246882517       -0.2625509049       -0.2734165843
 O         -1.5081479116        0.8088127898        0.2001304788
 H          2.6729004794        0.9920129905        0.2318024592
 H          2.2220292855       -0.0050945968       -1.1607339299
 H          1.2528320656        1.4133861161       -0.7336563903
 H          0.5414477148        0.3283335402        1.3778409207
 H          1.5515308325       -1.1039597931        0.9920176806
 H         -1.9218852643       -0.8591297732       -0.8816052050
  11
  -17.6152058800000       8.436523000156922E-002 !
 C          2.2913644069       -0.0172726997        0.1187335840
 C          0.8775648070        0.3858236006       -0.2503661305
 O         -0.0305458263       -0.5850175259        0.3164229776
 C         -1.3103332404       -0.3686707131        0.1874546201
 O         -1.8291901391        0.5696365374       -0.3646620858
 H          2.4039166620       -0.0373864327        1.1985618856
 H          2.5112687283       -1.0051819879       -0.2744527404
 H          2.9900196274        0.6989359324       -0.3008052263
 H          0.7283484804        0.3995022035       -1.3341707818
 H          0.6159442898        1.3717288031        0.1456726202
 H         -1.8764816921       -1.1820228777        0.6657287653
