  16
    -0.436827 !GC
 C          0.0000000000        0.0000000000        0.0000000000
 C          1.4989646008        0.0000000000        0.0000000000
 C          2.1854790079        1.2127330500        0.0000000000
 C          3.5627036551        1.2545525277        0.0243405309
 C          4.2954736875        0.0698173609        0.0525333749
 C          3.6237088138       -1.1436707207        0.0549234571
 C          2.2383582744       -1.1705566080        0.0285377120
 O          5.6565526089        0.1563876751        0.0675840487
 H         -0.3751272795        0.9988816238        0.2233597919
 H         -0.3886972832       -0.3013428636       -0.9684946256
 H         -0.3793605457       -0.6753956121        0.7640422133
 H          1.6259462107        2.1361034749       -0.0296265830
 H          4.0961172763        2.1923120444        0.0121016801
 H          4.1783054668       -2.0708795755        0.0783700612
 H          1.7338888814       -2.1258454511        0.0395273594
 H          6.0509074977       -0.7281960210        0.0792786979
  16
    -0.422458 !GC
 C          0.0000000000        0.0000000000        0.0000000000
 C          1.4990987149        0.0000000000        0.0000000000
 C          2.2198273194        1.1877043628        0.0000000000
 C          3.6010700079        1.1863939186       -0.0170594173
 C          4.2965681927       -0.0178802713       -0.0356503263
 C          3.5872687183       -1.2127367318       -0.0375990469
 C          2.2049245378       -1.1962569079       -0.0198034351
 O          5.6596088343        0.0248684454       -0.0561976579
 H         -0.3683132877       -0.3642615599        0.9607072432
 H         -0.3840117894        1.0087609492       -0.1315749214
 H         -0.3912884837       -0.6437852701       -0.7811472604
 H          1.6945043872        2.1313900794        0.0135811605
 H          4.1612414111        2.1084763249       -0.0201750948
 H          4.1149602843       -2.1557870414       -0.0487989428
 H          1.6655960081       -2.1322084831       -0.0075407760
 H          6.0251677317       -0.8720014751       -0.0707390286
  16
    -0.342458 !GC
 C          0.0000000000        0.0000000000        0.0000000000
 C          1.4989439096        0.0000000000        0.0000000000
 C          2.1805338517        1.2161653759        0.0000000000
 C          3.5572688454        1.2639260146        0.0108709703
 C          4.2954092776        0.0818255404        0.0241251266
 C          3.6289969078       -1.1342122998        0.0249972676
 C          2.2431430234       -1.1670618649        0.0127360890
 O          5.6561635954        0.1745140079        0.0253922795
 H         -0.3694710664       -0.4287218933        0.9332956887
 H         -0.3798780253        1.0181899159       -0.0560882809
 H         -0.3934320484       -0.5820409824       -0.8264818895
 H          1.6158637327        2.1366363699       -0.0203224857
 H          4.0867881786        2.2038512353       -0.0041050272
 H          4.1875067721       -2.0592339869        0.0398838420
 H          1.7436297419       -2.1249261709        0.0268360682
 H          6.0546552845       -0.7083121973        0.0267112039
  16
    -0.320490 !GC
 C          0.0000000000        0.0000000000        0.0000000000
 C          1.4990926590        0.0000000000        0.0000000000
 C          2.2059060360        1.1956950726        0.0000000000
 C          3.5883020942        1.2112401853        0.0173456679
 C          4.2965336179        0.0159528736        0.0355811306
 C          3.6000385902       -1.1879094040        0.0340792993
 C          2.2188707550       -1.1882930245        0.0170121939
 O          5.6596754798       -0.0277845866        0.0482107161
 H         -0.3816804522        0.7046082483        0.7362049364
 H         -0.3738125238        0.3067630145       -0.9763303798
 H         -0.3882186784       -0.9897798792        0.2231871042
 H          1.6672829392        2.1320632389       -0.0117658923
 H          4.1169162483        2.1539032379        0.0114326274
 H          4.1595160759       -2.1103032211        0.0490630405
 H          1.6924853780       -2.1314343216        0.0288592498
 H          6.0263578776        0.8689240250        0.0489221425
  16
    -0.297148 !GC
 C          0.0000000000        0.0000000000        0.0000000000
 C          1.4990160764        0.0000000000        0.0000000000
 C          2.1812509880        1.2181121208        0.0000000000
 C          3.5554287492        1.2658214432        0.0101466148
 C          4.2956027795        0.0822411080        0.0216200502
 C          3.6310424508       -1.1321043960        0.0217344433
 C          2.2426620677       -1.1650789348        0.0109534296
 O          5.6454661293        0.2778307245        0.0225416530
 H         -0.3791882721       -0.5568326708       -0.8552772097
 H         -0.3766036762       -0.4785554332        0.9027083066
 H         -0.3871268380        1.0142664030       -0.0435604548
 H          1.6162297857        2.1380730981       -0.0205498637
 H          4.1060417745        2.1914506580       -0.0020461171
 H          4.1683030636       -2.0717476489        0.0343645520
 H          1.7437541860       -2.1234868510        0.0181952933
 H          5.8491656676        1.2249048082        0.0211803661
  16
    -0.290051 !GC
 C          0.0000000000        0.0000000000        0.0000000000
 C          1.4991708817        0.0000000000        0.0000000000
 C          2.2206128520        1.1896267577        0.0000000000
 C          3.5992841350        1.1883649034       -0.0177389929
 C          4.2967243207       -0.0174334829       -0.0381647475
 C          3.5893187910       -1.2106514792       -0.0408791377
 C          2.2044778890       -1.1942289145       -0.0215472278
 O          5.6526758145        0.1285254369       -0.0572111997
 H         -0.3780374328       -0.6140647259       -0.8156626077
 H         -0.3807489324       -0.4089107998        0.9336815559
 H         -0.3849698984        1.0094280750       -0.1203357626
 H          1.6949109937        2.1328221773        0.0133517173
 H          4.1801180712        2.0953967534       -0.0188707703
 H          4.0952418188       -2.1675808244       -0.0540677596
 H          1.6655854447       -2.1306516640       -0.0161157881
 H          5.8909262059        1.0675115220       -0.0519902526
  16
    -0.275064 !GC
 C          0.0000000000        0.0000000000        0.0000000000
 C          1.4990830704        0.0000000000        0.0000000000
 C          2.1856567199        1.2151011488        0.0000000000
 C          3.5603081212        1.2575666857        0.0212519032
 C          4.2958810413        0.0716905993        0.0443879602
 C          3.6266801286       -1.1404431517        0.0441690269
 C          2.2386749651       -1.1681505137        0.0225006456
 O          5.6464881444        0.2619777231        0.0575296136
 H         -0.3833460311       -0.2014477563       -0.9977709744
 H         -0.3776386087       -0.7711552181        0.6696100024
 H         -0.3824207370        0.9614340485        0.3347232905
 H          1.6250996153        2.1377894619       -0.0227399342
 H          4.1141234402        2.1813428694        0.0142893640
 H          4.1605421153       -2.0819973725        0.0622234301
 H          1.7353793168       -2.1242460623        0.0317521194
 H          5.8540501958        1.2082398998        0.0546147414
  16
    -0.274033 !GC
 C          0.0000000000        0.0000000000        0.0000000000
 C          1.4990414357        0.0000000000        0.0000000000
 C          2.1900768558        1.2095408852        0.0000000000
 C          3.5675511971        1.2459209865        0.0376958423
 C          4.2951473673        0.0587583032        0.0787241424
 C          3.6185315898       -1.1523395165        0.0794592292
 C          2.2338260349       -1.1737482370        0.0407809644
 O          5.6563877719        0.1396704009        0.1063987585
 H         -0.3884186471       -0.5102404603        0.8772381990
 H         -0.3810827741        1.0187853420       -0.0121729591
 H         -0.3739714023       -0.5106011057       -0.8870354070
 H          1.6351242923        2.1354466178       -0.0353896661
 H          4.1046101653        2.1816579830        0.0280901863
 H          4.1694408898       -2.0815501018        0.1109664996
 H          1.7246742833       -2.1265452771        0.0506733222
 H          6.0469236268       -0.7466513521        0.1253479351
  16
    -0.255678 !GC
 C          0.0000000000        0.0000000000        0.0000000000
 C          1.4988338932        0.0000000000        0.0000000000
 C          2.1886857133        1.2079432038        0.0000000000
 C          3.5690803583        1.2447606360       -0.0119031038
 C          4.2958484076        0.0591839105       -0.0235196031
 C          3.6179971267       -1.1538171162       -0.0241640041
 C          2.2353222019       -1.1755937445       -0.0136511049
 O          5.6595130019        0.0372245454       -0.0354279993
 H         -0.3772421897        0.0551145097        1.0207829551
 H         -0.3736252020        0.8747872574       -0.5309804300
 H         -0.3920591518       -0.8947975019       -0.4719846949
 H          1.6331730771        2.1343834333        0.0039305445
 H          4.0838980259        2.1950473156       -0.0166955772
 H          4.1907557395       -2.0681291606       -0.0260304908
 H          1.7267531759       -2.1285349258       -0.0051373273
 H          6.0118903482        0.9395547778       -0.0285070299
  16
    -0.204003 !GC
 C          0.0000000000        0.0000000000        0.0000000000
 C          1.4991969980        0.0000000000        0.0000000000
 C          2.1944813444        1.2088919567        0.0000000000
 C          3.5703387691        1.2405246547        0.0182028284
 C          4.2963443427        0.0493545398        0.0387262932
 C          3.6174481062       -1.1582116518        0.0399550199
 C          2.2300667441       -1.1747972272        0.0220221613
 O          5.6484637874        0.2284946848        0.0450328022
 H         -0.3795087200       -0.9401637098       -0.3958169946
 H         -0.3855377381        0.1326247485        1.0079045274
 H         -0.3783797491        0.8092036584       -0.6227433824
 H          1.6422462829        2.1366116713       -0.0229044230
 H          4.1311993841        2.1598783663        0.0033955893
 H          4.1443220338       -2.1036530192        0.0547644405
 H          1.7175937068       -2.1260287591        0.0300008114
 H          5.8636847088        1.1729133615        0.0370376971
  16
    -0.197799 !GC
 C          0.0000000000        0.0000000000        0.0000000000
 C          1.4990257912        0.0000000000        0.0000000000
 C          2.1996860328        1.2049400327        0.0000000000
 C          3.5761430803        1.2297775896       -0.0178314386
 C          4.2962805444        0.0355570269       -0.0366984780
 C          3.6115880650       -1.1691241061       -0.0376324923
 C          2.2246739014       -1.1789288476       -0.0190220120
 O          5.6490272956        0.2080386538       -0.0586821909
 H         -0.3787245353        0.7717709052        0.6683174988
 H         -0.3835210009        0.1949367194       -0.9986700458
 H         -0.3809904019       -0.9614599099        0.3376209150
 H          1.6527900404        2.1360552157        0.0068755526
 H          4.1408581373        2.1468659590       -0.0278416422
 H          4.1343184872       -2.1169874952       -0.0469345493
 H          1.7069583742       -2.1273097949       -0.0094256791
 H          5.8689614672        1.1513359961       -0.0539505382
  16
    -0.171210 !GC
 C          0.0000000000        0.0000000000        0.0000000000
 C          1.4990268005        0.0000000000        0.0000000000
 C          2.1992648990        1.2052414370        0.0000000000
 C          3.5757532905        1.2305709489       -0.0100688052
 C          4.2964755093        0.0365713717       -0.0208943923
 C          3.6122810256       -1.1683686011       -0.0221293046
 C          2.2252287725       -1.1786646412       -0.0117310918
 O          5.6492191237        0.2095980386       -0.0388972584
 H         -0.3694779411        0.2961042462       -0.9832016335
 H         -0.3824179912       -0.9979792391        0.2017404117
 H         -0.3911876298        0.6947997598        0.7361929011
 H          1.6518978932        2.1361187166       -0.0006699836
 H          4.1401771944        2.1478585547       -0.0201720052
 H          4.1354101922       -2.1160572032       -0.0251309234
 H          1.7078899111       -2.1271701165        0.0015539059
 H          5.8687298695        1.1529750414       -0.0350680354
  16
    -0.164837 !GC
 C          0.0000000000        0.0000000000        0.0000000000
 C          1.4991980073        0.0000000000        0.0000000000
 C          2.1940585472        1.2091914842        0.0000000000
 C          3.5697389358        1.2414344363        0.0259597401
 C          4.2961037264        0.0506172230        0.0545279770
 C          3.6177046243       -1.1572048604        0.0554567178
 C          2.2304055213       -1.1744083972        0.0293088248
 O          5.6481295944        0.2303361003        0.0648130953
 H         -0.3702723694        0.0232618499        1.0257323525
 H         -0.3844362149        0.8812291089       -0.5081524653
 H         -0.3886071111       -0.8920935167       -0.4828529990
 H          1.6415610814        2.1365515668       -0.0304546594
 H          4.1303422930        2.1609645883        0.0110635062
 H          4.1448365401       -2.1023870788        0.0765646568
 H          1.7182274164       -2.1257241840        0.0409840345
 H          5.8629766385        1.1748087766        0.0559132072
  16
    -0.154379 !GC
 C          0.0000000000        0.0000000000        0.0000000000
 C          1.4990462300        0.0000000000        0.0000000000
 C          2.2064423493        1.1952609748        0.0000000000
 C          3.5888549280        1.2101081096        0.0196989750
 C          4.2963363748        0.0144724248        0.0412239272
 C          3.5991559160       -1.1890560330        0.0415823543
 C          2.2181039547       -1.1887197704        0.0212666538
 O          5.6593959389       -0.0300285940        0.0551513968
 H         -0.3831289974        0.2210061247       -0.9938871675
 H         -0.3816466517       -0.9697203940        0.3111488480
 H         -0.3788146676        0.7552909908        0.6865084888
 H          1.6684253168        2.1318290978       -0.0188660669
 H          4.1180790068        2.1524044571        0.0113603618
 H          4.1580959931       -2.1116683825        0.0596225726
 H          1.6911952435       -2.1316018123        0.0280033198
 H          6.0264515903        0.8664715262        0.0532270884
  16
    -0.135564 !GC
 C          0.0000000000        0.0000000000        0.0000000000
 C          1.4989107281        0.0000000000        0.0000000000
 C          2.1932628279        1.2047388998        0.0000000000
 C          3.5742431833        1.2358987548        0.0014698145
 C          4.2962002304        0.0477119879        0.0026761658
 C          3.6134808331       -1.1628601115        0.0003674284
 C          2.2311412069       -1.1789863426       -0.0013990294
 O          5.6598216076        0.0199331428        0.0039181914
 H         -0.3905078403       -0.9812938991       -0.2535803374
 H         -0.3659150958        0.2600826043        0.9943253152
 H         -0.3867379363        0.7354652845       -0.7001590901
 H          1.6421661730        2.1337969517       -0.0018489903
 H          4.0927522134        2.1842147285       -0.0009399285
 H          4.1827870742       -2.0793508503        0.0066956645
 H          1.7178881234       -2.1294054086        0.0060413993
 H          6.0160244830        0.9209298046        0.0106137589
  16
    -0.119382 !GC
 C          0.0000000000        0.0000000000        0.0000000000
 C          1.4989429003        0.0000000000        0.0000000000
 C          2.1809596864        1.2158705075        0.0000000000
 C          3.5577917881        1.2630709462        0.0031076355
 C          4.2954893624        0.0806634043        0.0083263062
 C          3.6285807004       -1.1351256703        0.0095021425
 C          2.2427209107       -1.1674056920        0.0054460920
 O          5.6562720587        0.1727750712        0.0051144362
 H         -0.3787201319       -0.6725836055       -0.7683666147
 H         -0.3809834040       -0.3371639094        0.9616969758
 H         -0.3832563171        0.9983689186       -0.1969680414
 H          1.6166185984        2.1366652019       -0.0127611484
 H          4.0875792770        2.2028286098       -0.0116068801
 H          4.1868053029       -2.0603958103        0.0180039649
 H          1.7428910743       -2.1251885175        0.0158285406
 H          6.0543994748       -0.7102398714        0.0036477285
  16
    -0.117489 !GC
 C          0.0000000000        0.0000000000        0.0000000000
 C          1.4990474917        0.0000000000        0.0000000000
 C          2.2041553487        1.2017337135        0.0000000000
 C          3.5812430127        1.2209972714        0.0033916984
 C          4.2968043175        0.0242924003        0.0075254790
 C          3.6073421128       -1.1780460982        0.0078128968
 C          2.2206588682       -1.1822455814        0.0040631575
 O          5.6504418156        0.1911166355        0.0025740825
 H         -0.3751326578       -1.0198857841       -0.0837173441
 H         -0.3912175137        0.4369137032        0.9136048684
 H         -0.3770875102        0.5604536712       -0.8536134596
 H          1.6618118107        2.1355126551       -0.0099697594
 H          4.1494616490        2.1359662596       -0.0037266551
 H          4.1266112989       -2.1278564587        0.0132995480
 H          1.6983621167       -2.1280532621        0.0142176786
 H          5.8741427224        1.1334959407        0.0019964242
  16
    -0.111969 !GC
 C          0.0000000000        0.0000000000        0.0000000000
 C          1.4989167840        0.0000000000        0.0000000000
 C          2.2072866021        1.1968931765        0.0000000000
 C          3.5869071190        1.2114345548       -0.0328857205
 C          4.2957790814        0.0143773443       -0.0685447854
 C          3.6001457657       -1.1873234216       -0.0713047477
 C          2.2168242175       -1.1868142586       -0.0381699635
 O          5.6580263611        0.0732204293       -0.0994888693
 H         -0.3772470128       -0.1950572230       -1.0032498408
 H         -0.3761783959       -0.7880585346        0.6503708800
 H         -0.3898121546        0.9542383998        0.3402057660
 H          1.6696209784        2.1333094401        0.0235124173
 H          4.1373007243        2.1394342870       -0.0328985871
 H          4.1376794180       -2.1246865503       -0.0910717879
 H          1.6904298355       -2.1301710704       -0.0303637486
 H          6.0338763694       -0.8192108857       -0.1259649765
  16
    -0.111252 !GC
 C          0.0000000000        0.0000000000        0.0000000000
 C          1.4990522860        0.0000000000        0.0000000000
 C          2.2203587114        1.1872634841        0.0000000000
 C          3.6016679231        1.1852199790       -0.0147082105
 C          4.2964957339       -0.0194466727       -0.0300046183
 C          3.5865624846       -1.2139907885       -0.0300932559
 C          2.2042615190       -1.1967429795       -0.0155533433
 O          5.6595314051        0.0225209141       -0.0494828914
 H         -0.3697790444        1.0004440283       -0.2301421730
 H         -0.3917753556       -0.6859977534       -0.7443576067
 H         -0.3819157234       -0.2718262795        0.9813619767
 H          1.6954810110        2.1312402454        0.0064907999
 H          4.1623725828        2.1069611188       -0.0201665992
 H          4.1137826230       -2.1572846552       -0.0382321466
 H          1.6642829496       -2.1323552265       -0.0084018525
 H          6.0244728765       -0.8745936688       -0.0607423751
  16
    -0.111200 !GC
 C          0.0000000000        0.0000000000        0.0000000000
 C          1.4990207445        0.0000000000        0.0000000000
 C          2.1851473187        1.2129915080        0.0000000000
 C          3.5622884234        1.2552399787        0.0242190644
 C          4.2954007578        0.0706117819        0.0503182962
 C          3.6241257002       -1.1430535462        0.0495342306
 C          2.2387664903       -1.1703513018        0.0249708774
 O          5.6564746302        0.1575681914        0.0642066481
 H         -0.3828324727       -0.7538258504       -0.6847738098
 H         -0.3722062494       -0.2381587054        0.9961596037
 H         -0.3881175924        0.9725994909       -0.2891412432
 H          1.6249945500        2.1360509322       -0.0260949824
 H          4.0955140238        2.1931355814        0.0118796271
 H          4.1790185384       -2.0701296034        0.0724808517
 H          1.7345173240       -2.1257298809        0.0379922084
 H          6.0512409902       -0.7270606294        0.0727838144
  16
    -0.085378 !GC
 C          0.0000000000        0.0000000000        0.0000000000
 C          1.4990158241        0.0000000000        0.0000000000
 C          2.2013697281        1.1989457293        0.0000000000
 C          3.5833991548        1.2200685515        0.0039524214
 C          4.2966221206        0.0272454802        0.0093774390
 C          3.6049584838       -1.1790924346        0.0095400282
 C          2.2232547285       -1.1850368642        0.0047398056
 O          5.6599833260       -0.0107391580        0.0088480031
 H         -0.3683061188        0.4931486206       -0.9016261653
 H         -0.3814750277       -1.0187667016       -0.0150078272
 H         -0.3935327638        0.5252239419        0.8636592542
 H          1.6582433723        2.1327860982       -0.0059984173
 H          4.1083401538        2.1647346844       -0.0043379692
 H          4.1679706774       -2.0993851365        0.0163258686
 H          1.7015415079       -2.1307725611        0.0177042010
 H          6.0228116505        0.8873670909        0.0097759555
  16
    -0.080045 !GC
 C          0.0000000000        0.0000000000        0.0000000000
 C          1.4992699218        0.0000000000        0.0000000000
 C          2.2147161730        1.1917450222        0.0000000000
 C          3.5954664561        1.1972755683        0.0190993608
 C          4.2968665872       -0.0040657327        0.0397859145
 C          3.5933489924       -1.2019422868        0.0399998288
 C          2.2104290381       -1.1922230881        0.0213651999
 O          5.6598713306        0.0454309672        0.0497141162
 H         -0.3691088759        0.0484534065       -1.0254768414
 H         -0.3860280240       -0.9137298802        0.4451128057
 H         -0.3887081695        0.8576338264        0.5416329640
 H          1.6837937114        2.1322696749       -0.0161291414
 H          4.1515902814        2.1217357378        0.0102670136
 H          4.1252033169       -2.1425704271        0.0531820064
 H          1.6762071384       -2.1311125125        0.0318734260
 H          6.0299718250       -0.8496821141        0.0609350368
  16
    -0.069137 !GC
 C          0.0000000000        0.0000000000        0.0000000000
 C          1.4990662904        0.0000000000        0.0000000000
 C          2.1976585069        1.2040774082        0.0000000000
 C          3.5764858640        1.2307854744       -0.0180187844
 C          4.2962625593        0.0389362293       -0.0373454173
 C          3.6112464603       -1.1680792258       -0.0391583988
 C          2.2268054794       -1.1797060367       -0.0201519739
 O          5.6582079047        0.1100670834       -0.0561058400
 H         -0.3816137573        0.1265676046       -1.0109062889
 H         -0.3704189824       -0.9544130140        0.3753742547
 H         -0.3911000512        0.7899693014        0.6341002853
 H          1.6496741378        2.1347147373        0.0106248756
 H          4.1191228527        2.1632545629       -0.0262052861
 H          4.1565084105       -2.1010476458       -0.0494964021
 H          1.7101668642       -2.1285011475       -0.0145894002
 H          6.0425184766       -0.7791464185       -0.0699682735
  16
    -0.053429 !GC
 C          0.0000000000        0.0000000000        0.0000000000
 C          1.4989693951        0.0000000000        0.0000000000
 C          2.2019079952        1.1985137966        0.0000000000
 C          3.5839797579        1.2189253810        0.0063047565
 C          4.2964842771        0.0257336737        0.0150212466
 C          3.6041496466       -1.1802795617        0.0170438833
 C          2.2225299590       -1.1854901746        0.0089935699
 O          5.6597787243       -0.0130224087        0.0157891555
 H         -0.3697722581       -1.0228327610        0.0902597688
 H         -0.3892566669        0.5726192935        0.8366550018
 H         -0.3841794513        0.4082652239       -0.9313549598
 H          1.6593491611        2.1325789813       -0.0131026828
 H          4.1095130286        2.1632316705       -0.0044118064
 H          4.1666513657       -2.1008041166        0.0268867387
 H          1.7002459133       -2.1309497126        0.0168484499
 H          6.0229574396        0.8848871691        0.0140823000
  16
    -0.052958 !GC
 C          0.0000000000        0.0000000000        0.0000000000
 C          1.4990197352        0.0000000000        0.0000000000
 C          2.1855718102        1.2126950531        0.0000000000
 C          3.5628843442        1.2543394997        0.0164544476
 C          4.2956262707        0.0693644918        0.0345206083
 C          3.6238422423       -1.1440429950        0.0340392441
 C          2.2384057620       -1.1707296065        0.0176780327
 O          5.6567692840        0.1557179934        0.0439285910
 H         -0.3919644322        0.9275973823       -0.4055928596
 H         -0.3733184950       -0.8289559655       -0.6004836833
 H         -0.3778858681       -0.1322126250        1.0127724477
 H          1.6257092119        2.1360992871       -0.0185377194
 H          4.0963898852        2.1920586872        0.0043768776
 H          4.1784963092       -2.0713935320        0.0506010006
 H          1.7338652697       -2.1260339641        0.0269907110
 H          6.0511916682       -0.7291114546        0.0497199894
  16
    -0.047377 !GC
 C          0.0000000000        0.0000000000        0.0000000000
 C          1.4990613699        0.0000000000        0.0000000000
 C          2.1811277576        1.2182390254        0.0000000000
 C          3.5553358607        1.2661021770        0.0000564441
 C          4.2957590218        0.0826122436        0.0001724617
 C          3.6313654489       -1.1317861228       -0.0012657565
 C          2.2429317543       -1.1649451213       -0.0005577043
 O          5.6456264452        0.2783977867       -0.0037065369
 H         -0.3869087087       -0.4256871073        0.9219488299
 H         -0.3698482271        1.0230380360       -0.0780874237
 H         -0.3863075449       -0.5598237695       -0.8476988983
 H          1.6158732694        2.1382862905       -0.0058696953
 H          4.1056489894        2.1919226700       -0.0098043327
 H          4.1688321400       -2.0714382443        0.0020043590
 H          1.7442531560       -2.1235141952        0.0080727038
 H          5.8493647236        1.2255354043       -0.0012997084
  16
    -0.038741 !GC
 C          0.0000000000        0.0000000000        0.0000000000
 C          1.4992234928        0.0000000000        0.0000000000
 C          2.2152499812        1.1913067016        0.0000000000
 C          3.5960087295        1.1961418447        0.0214504202
 C          4.2966503844       -0.0055398634        0.0454305661
 C          3.5924457986       -1.2030732557        0.0475036495
 C          2.2096506808       -1.1926379990        0.0256139656
 O          5.6596299506        0.0431804679        0.0564275533
 H         -0.3705730782       -0.8791040296        0.5285210705
 H         -0.3937801118        0.8862622473        0.4871301769
 H         -0.3793081027       -0.0489547523       -1.0192119362
 H          1.6849633929        2.1320095110       -0.0232224845
 H          4.1527385107        2.1202057360        0.0102805443
 H          4.1237555878       -2.1439096482        0.0637458021
 H          1.6749177022       -2.1312623308        0.0310090510
 H          6.0290282771       -0.8521214802        0.0709265571
  16
    -0.031191 !GC
 C          0.0000000000        0.0000000000        0.0000000000
 C          1.4990623792        0.0000000000        0.0000000000
 C          2.1807010117        1.2185339308        0.0000000000
 C          3.5548293222        1.2669463612        0.0078065034
 C          4.2957250559        0.0837482384        0.0159732957
 C          3.6318414906       -1.1309050391        0.0142343935
 C          2.2433855161       -1.1646186200        0.0067213219
 O          5.6455213029        0.2801147827        0.0160686936
 H         -0.3777347704        1.0213883007        0.0116467506
 H         -0.3687324114       -0.4635027499       -0.9160621907
 H         -0.3964560635       -0.5431481624        0.8504443932
 H          1.6150696496        2.1382841399       -0.0134308547
 H          4.1048509744        2.1929599408       -0.0021426310
 H          4.1696301512       -2.0703342577        0.0238021348
 H          1.7450465199       -2.1232874291        0.0190745794
 H          5.8488377377        1.2273219467        0.0175680328
  16
    -0.021087 !GC
 C          0.0000000000        0.0000000000        0.0000000000
 C          1.4990941730        0.0000000000        0.0000000000
 C          2.2161054287        1.1929322493        0.0000000000
 C          3.5941375173        1.1974415799       -0.0310871577
 C          4.2962572196       -0.0057291467       -0.0643702006
 C          3.5936795975       -1.2014892053       -0.0654324824
 C          2.2085571543       -1.1908286681       -0.0337888095
 O          5.6513273474        0.1461262530       -0.0954368942
 H         -0.3646239282       -0.5970779652        0.8387302820
 H         -0.3883675017        1.0070578851        0.1245885761
 H         -0.3903006402       -0.4343622229       -0.9149124609
 H          1.6860001763        2.1335823126        0.0191209478
 H          4.1714105897        2.1067052447       -0.0350952688
 H          4.1030635073       -2.1563952176       -0.0865481358
 H          1.6742825087       -2.1299035616       -0.0272538837
 H          5.8855831235        1.0859443789       -0.0884443584
  16
    -0.020335 !GC
 C          0.0000000000        0.0000000000        0.0000000000
 C          1.4991342937        0.0000000000        0.0000000000
 C          2.2015852882        1.2013110597        0.0000000000
 C          3.5810056098        1.2231476916        0.0008892216
 C          4.2969307160        0.0291884846        0.0012268101
 C          3.6078111568       -1.1758060637       -0.0012298587
 C          2.2235146783       -1.1825780424       -0.0012823489
 O          5.6593074022        0.0954373034       -0.0003259535
 H         -0.3765781399       -1.0187126806       -0.0829953633
 H         -0.3703435327        0.3981961544        0.9453690446
 H         -0.3965566069        0.5989933635       -0.8120317397
 H          1.6575707316        2.1343999139        0.0008777598
 H          4.1266077013        2.1539407074       -0.0024912424
 H          4.1501865973       -2.1105802241        0.0003206302
 H          1.7029451695       -2.1291369230        0.0099544410
 H          6.0406690455       -0.7951519750       -0.0043124355
  16
    -0.006469 !GC
 C          0.0000000000        0.0000000000        0.0000000000
 C          1.4990150671        0.0000000000        0.0000000000
 C          2.1816775557        1.2178170068        0.0000000000
 C          3.5559482841        1.2649694562        0.0023964969
 C          4.2956685740        0.0810869727        0.0058193195
 C          3.6306085774       -1.1330084772        0.0062341509
 C          2.2422311632       -1.1654175558        0.0036740842
 O          5.6456045763        0.2760998722        0.0027665908
 H         -0.3883500449        1.0022677724       -0.1575906484
 H         -0.3777120580       -0.6508164193       -0.7867809159
 H         -0.3768867604       -0.3751033480        0.9505545221
 H          1.6169835356        2.1381027164       -0.0129892238
 H          4.1068392456        2.1904135813       -0.0097087378
 H          4.1675651504       -2.0728846773        0.0125667258
 H          1.7429609992       -2.1236938337        0.0071933049
 H          5.8497128334        1.2231097983        0.0023132249
  16
    -0.002842 !GC
 C          0.0000000000        0.0000000000        0.0000000000
 C          1.4990890002        0.0000000000        0.0000000000
 C          2.2017055226        1.2011813672        0.0000000000
 C          3.5810865432        1.2228681979        0.0110137970
 C          4.2967600234        0.0288246051        0.0226754606
 C          3.6074813317       -1.1761191721        0.0217732472
 C          2.2232479496       -1.1827113421        0.0102676334
 O          5.6591030403        0.0948967324        0.0266754199
 H         -0.3687821012        0.6153618125       -0.8223520546
 H         -0.3770968204       -1.0076323149       -0.1677738710
 H         -0.3973662532        0.3875787369        0.9309144708
 H          1.6578318736        2.1342323176       -0.0137709236
 H          4.1269419287        2.1535141981        0.0050260253
 H          4.1496642946       -2.1108940154        0.0327723981
 H          1.7024320986       -2.1290967452        0.0200738473
 H          6.0401809069       -0.7957417362        0.0287537967
  16
    -0.002807 !GC
 C          0.0000000000        0.0000000000        0.0000000000
 C          1.4990367676        0.0000000000        0.0000000000
 C          2.1862046227        1.2146769335        0.0000000000
 C          3.5608791342        1.2564521619        0.0235929938
 C          4.2956943934        0.0702173567        0.0500335065
 C          3.6257972735       -1.1415919534        0.0516681944
 C          2.2379046143       -1.1685820350        0.0267341034
 O          5.6463563780        0.2597325105        0.0640021291
 H         -0.3847922612       -0.7174496931        0.7208163747
 H         -0.3854479627        0.9869671536        0.2424083649
 H         -0.3729695606       -0.2793102116       -0.9851871523
 H          1.6263199985        2.1375381835       -0.0298529412
 H          4.1153017510        2.1798383183        0.0143871706
 H          4.1591031422       -2.0833458389        0.0727842605
 H          1.7341035150       -2.1244298915        0.0308735449
 H          5.8543317681        1.2058397601        0.0582260472
  16
    -0.002002 !GC
 C          0.0000000000        0.0000000000        0.0000000000
 C          1.4992186985        0.0000000000        0.0000000000
 C          2.1989683367        1.2057054010        0.0000000000
 C          3.5749220898        1.2320951503        0.0394238195
 C          4.2957225365        0.0387908636        0.0829411575
 C          3.6119872486       -1.1664196261        0.0853920923
 C          2.2254011643       -1.1777413634        0.0451068302
 O          5.6483779330        0.2124826929        0.1062828583
 H         -0.3759209346        0.9947862851       -0.2363845916
 H         -0.3932232710       -0.7040958754       -0.7265763810
 H         -0.3744667189       -0.2657860476        0.9880978832
 H          1.6517302871        2.1358476189       -0.0397373163
 H          4.1393057905        2.1493525559        0.0275082035
 H          4.1350700524       -2.1136339959        0.1149866105
 H          1.7083595371       -2.1264405915        0.0536351991
 H          5.8675754387        1.1558829085        0.0929800181
  16
    -0.001691 !GC
 C          0.0000000000        0.0000000000        0.0000000000
 C          1.4990672997        0.0000000000        0.0000000000
 C          2.1972376520        1.2043780700        0.0000000000
 C          3.5760967013        1.2315784459       -0.0102442418
 C          4.2964599081        0.0399485946       -0.0215436028
 C          3.6119478512       -1.1673284985       -0.0236610821
 C          2.2273670382       -1.1794444149       -0.0128507350
 O          5.6584375553        0.1116455419       -0.0358181264
 H         -0.3723949299       -0.9799805509        0.2995023916
 H         -0.3693038006        0.7121349924        0.7389010512
 H         -0.4012040146        0.2563302339       -0.9729556605
 H          1.6487564629        2.1347920238        0.0030777417
 H          4.1184262436        2.1642447200       -0.0186981405
 H          4.1576088843       -2.1001168718       -0.0276120148
 H          1.7111303780       -2.1283930179       -0.0035996867
 H          6.0431669806       -0.7774013976       -0.0468964766
  16
    -0.000027 !GC
 C          0.0000000000        0.0000000000        0.0000000000
 C          1.4990112821        0.0000000000        0.0000000000
 C          2.1975663457        1.2041158830        0.0000000000
 C          3.5765073014        1.2308841841       -0.0101237552
 C          4.2965803972        0.0391174623       -0.0193309986
 C          3.6116608177       -1.1680260471       -0.0182716991
 C          2.2270464072       -1.1797011502       -0.0092837527
 O          5.6585834816        0.1104156396       -0.0324411630
 H         -0.3646158092        0.7070068492       -0.7487277700
 H         -0.3858401245       -0.9801667699       -0.2686542074
 H         -0.3925467055        0.2992034926        0.9660913443
 H          1.6496145677        2.1348881338       -0.0004541056
 H          4.1190258015        2.1634108409       -0.0184736360
 H          4.1570397047       -2.1009496803       -0.0217233307
 H          1.7105408890       -2.1285222597       -0.0020688431
 H          6.0429699562       -0.7786210100       -0.0403987192
