  16
  -23.1315345600000       9.223809994749300E-002 !
 C         -2.9253036374       -0.0005496723       -0.0004189802
 C         -1.4261061677       -0.0089696826       -0.0003497152
 C         -0.7090163736       -1.1960431411        0.0004255895
 C          0.6752418410       -1.1977840382        0.0004124854
 C          1.3718909401        0.0029302775        0.0006628701
 C          0.6634107245        1.2012587804        0.0006612313
 C         -0.7162055457        1.1879121738       -0.0000374280
 O          2.7346735389        0.0606881840       -0.0007165376
 H         -3.3010418822        0.5298280374       -0.8737930781
 H         -3.3180662673       -1.0134799961       -0.0120939034
 H         -3.3007412140        0.5090540211        0.8855535600
 H         -1.2354620247       -2.1394147002        0.0004198680
 H          1.2118198529       -2.1358299095       -0.0021460338
 H          1.2148895576        2.1286280913        0.0003754127
 H         -1.2544616314        2.1242765064       -0.0011879286
 H          3.1104637761       -0.8323870596       -0.0019129183
  16
  -23.1315321400000       9.200219589853746E-002 !
 C         -2.9251857796       -0.0010188085       -0.0030690900
 C         -1.4260389013       -0.0086509233        0.0025022101
 C         -0.7090430571       -1.1958383117        0.0015035475
 C          0.6751598704       -1.1977778284        0.0002711068
 C          1.3718338470        0.0029994537       -0.0001310604
 C          0.6634649519        1.2013184050        0.0002417182
 C         -0.7161458274        1.1881402711        0.0013674515
 O          2.7345626307        0.0605056746       -0.0008991429
 H         -3.3053304545        0.6229341973        0.8035271323
 H         -3.2959493283        0.4066923604       -0.9426073029
 H         -3.3181318424       -1.0069331840        0.1163158461
 H         -1.2357402633       -2.1390472287        0.0011806553
 H          1.2117444443       -2.1358408730       -0.0002099380
 H          1.2149384740        2.1286441746        0.0012519841
 H         -1.2540851345        2.1247034685        0.0037551205
 H          3.1101260682       -0.8325565829       -0.0009463748
  16
  -23.1315306500000       9.185724938648716E-002 !
 C         -2.9248017336       -0.0456981519       -0.0009291780
 C         -1.4259965212       -0.0134804141        0.0005013002
 C         -0.6973923757       -1.1990290415        0.0005338037
 C          0.6822061146       -1.1905894864        0.0001482408
 C          1.3716951876        0.0187677537       -0.0000830438
 C          0.6562986561        1.2084167917        0.0001680866
 C         -0.7277584583        1.1847908621        0.0003670938
 O          2.7351391618       -0.0177034986       -0.0001235511
 H         -3.2911169286       -0.5496977117       -0.8939511374
 H         -3.2925577255       -0.5936123537        0.8649899221
 H         -3.3338814141        0.9605454652        0.0232308418
 H         -1.2207571720       -2.1438311976       -0.0004501915
 H          1.2481881465       -2.1091093727       -0.0001347740
 H          1.1781506448        2.1548009612        0.0000549758
 H         -1.2690714391        2.1196835368       -0.0000605172
 H          3.0970144417        0.8810060321       -0.0001343397
  16
  -23.1315291900000       9.171544277130157E-002 !
 C         -2.9248073400       -0.0454592457        0.0019126443
 C         -1.4259946670       -0.0136433609       -0.0019650264
 C         -0.6973654526       -1.1991281551       -0.0010466931
 C          0.6822684151       -1.1906143347        0.0000832899
 C          1.3716985102        0.0187484978        0.0005442682
 C          0.6562330000        1.2083864846       -0.0000012181
 C         -0.7277876521        1.1846895751       -0.0011821607
 O          2.7351482394       -0.0176403263        0.0005821684
 H         -3.3337118931        0.9576217562       -0.0824088789
 H         -3.2939060019       -0.6457404237       -0.8276439879
 H         -3.2899808124       -0.4930322819        0.9252241684
 H         -1.2206089239       -2.1439930005       -0.0018879425
 H          1.2482774478       -2.1091206959       -0.0002309543
 H          1.1780533872        2.1547899398       -0.0005984751
 H         -1.2691963417        2.1195333400       -0.0020529878
 H          3.0969697612        0.8810935167        0.0000780182
  16
  -23.1315259000000       9.139669420901331E-002 !
 C         -2.9248249248       -0.0424288575       -0.0086384009
 C         -1.4260219591       -0.0157705394        0.0066746015
 C         -0.6970010129       -1.2003735877        0.0045038952
 C          0.6830514582       -1.1909306610        0.0009402620
 C          1.3717087417        0.0184787648       -0.0010331720
 C          0.6554397518        1.2080032636        0.0009710193
 C         -0.7281339120        1.1834024724        0.0045645395
 O          2.7351988975       -0.0168344934       -0.0030025697
 H         -3.3013544831       -0.8206817067        0.6511675170
 H         -3.3321987798        0.9150301893        0.3047744151
 H         -3.2839978811       -0.2540757178       -1.0155695843
 H         -1.2187924616       -2.1460401232        0.0067198504
 H          1.2493747223       -2.1092415225        0.0007563153
 H          1.1768809699        2.1546185529        0.0008917190
 H         -1.2707645954        2.1175122831        0.0069579326
 H          3.0962628285        0.8822042022       -0.0031605854
  16
  -23.1315237300000       9.118706233088557E-002 !
 C         -2.9251047909       -0.0089462916        0.0102240366
 C         -1.4261184354       -0.0030311581       -0.0081689615
 C         -0.7100045020       -1.1925295955       -0.0055197890
 C          0.6730162002       -1.1968638094       -0.0010790083
 C          1.3718405953        0.0036612607        0.0012506592
 C          0.6655458374        1.2021811351       -0.0013930568
 C         -0.7152357826        1.1913976813       -0.0057890258
 O          2.7347049104        0.0585012530        0.0042191206
 H         -3.3140993045       -0.8704207839       -0.5269167460
 H         -3.2844876472       -0.0614916938        1.0379583064
 H         -3.3200447122        0.8980897926       -0.4399230831
 H         -1.2400964953       -2.1337807211       -0.0080640061
 H          1.2086479268       -2.1355050486       -0.0001860880
 H          1.2178197071        2.1290025305       -0.0011648579
 H         -1.2495210481        2.1300852291       -0.0084754877
 H          3.1083579747       -0.8353678559        0.0046233660
  16
  -23.1315147600000       9.032560895953931E-002 !
 C         -2.9251807641       -0.0126479224       -0.0077749583
 C         -1.4261214270       -0.0004265050        0.0061301275
 C         -0.7104412831       -1.1909918129        0.0040698488
 C          0.6720599151       -1.1964372143        0.0007189683
 C          1.3718674786        0.0039948647       -0.0009339813
 C          0.6665318592        1.2026072556        0.0007646523
 C         -0.7147922082        1.1929344775        0.0040061457
 O          2.7348014441        0.0575295077       -0.0025592663
 H         -3.3221722139        0.9600508470        0.2695697845
 H         -3.2878779308       -0.2590651113       -1.0054247950
 H         -3.3090282392       -0.7610830437        0.6819060256
 H         -1.2422379710       -2.1312640946        0.0063866718
 H          1.2072728302       -2.1353242492        0.0006397960
 H          1.2192136283        2.1291875702        0.0008894186
 H         -1.2474976659        2.1325465198        0.0060551766
 H          3.1075569630       -0.8367137654       -0.0025819655
  16
  -23.1315132800000       9.018425817669408E-002 !
 C         -2.9249808831       -0.0345314071        0.0086358356
 C         -1.4259691669       -0.0213243577       -0.0071268406
 C         -0.6960207552       -1.2036182144       -0.0046088178
 C          0.6851426297       -1.1918008155       -0.0008453689
 C          1.3717468412        0.0177712324        0.0011687818
 C          0.6533695328        1.2070442215       -0.0010079237
 C         -0.7290231899        1.1800912886       -0.0048967904
 O          2.7353321376       -0.0147558898        0.0034095642
 H         -3.2891217536        0.1479939448        1.0195317476
 H         -3.3230483147        0.7451051743       -0.6367078023
 H         -3.3063487509       -0.9968226270       -0.3220897899
 H         -1.2142590243       -2.1512795067       -0.0060851600
 H          1.2522877989       -2.1095953020       -0.0002547582
 H          1.1738709997        2.1541745333       -0.0013023493
 H         -1.2751245140        2.1121330922       -0.0074344127
 H          3.0944804538        0.8850431717        0.0036665445
  16
  -23.1315109500000       8.996217430932420E-002 !
 C         -2.9250176843       -0.0339124361       -0.0081908729
 C         -1.4259588986       -0.0217725517        0.0063500305
 C         -0.6959436352       -1.2038770679        0.0042348648
 C          0.6853086441       -1.1918676108        0.0009694083
 C          1.3717557083        0.0176990058       -0.0008471741
 C          0.6532146742        1.2069738877        0.0009220901
 C         -0.7290787148        1.1798257154        0.0043596156
 O          2.7353480622       -0.0145867317       -0.0029038901
 H         -3.3215358299        0.7198632514        0.6682935806
 H         -3.2908432257        0.1892582439       -1.0101866295
 H         -3.3064304524       -1.0081215302        0.2852888479
 H         -1.2138754435       -2.1516988066        0.0057792309
 H          1.2525020221       -2.1096289139        0.0005583590
 H          1.1736692197        2.1541441476        0.0006264982
 H         -1.2755202168        2.1116726499        0.0058596699
 H          3.0943382877        0.8852871686       -0.0030464664
  16
  -23.1315071100000       8.959735758834171E-002 !
 C         -2.9251786776       -0.0311208646        0.0006489272
 C         -1.4259156358       -0.0237825628       -0.0002547097
 C         -0.6956062812       -1.2050482800       -0.0007685321
 C          0.6860669465       -1.1921490338       -0.0001790493
 C          1.3718007861        0.0174663299       -0.0001798652
 C          0.6525405652        1.2067001975       -0.0005409201
 C         -0.7293642207        1.1786724054       -0.0006303630
 O          2.7354135972       -0.0138760391        0.0008968642
 H         -3.3071153396        0.4972748475       -0.8712356495
 H         -3.3069283329       -1.0480832626       -0.0136021507
 H         -3.3059175261        0.4713205546        0.8884997797
 H         -1.2123929325       -2.1535607734        0.0029067240
 H          1.2535953852       -2.1097216959        0.0026255775
 H          1.1726751615        2.1540578613       -0.0004956426
 H         -1.2771499858        2.1097137317       -0.0017034828
 H          3.0937423241        0.8862673589        0.0014629806
  16
  -23.1315064400000       8.953385642238237E-002 !
 C         -2.9251032765       -0.0314526474        0.0029521066
 C         -1.4258987161       -0.0234880439       -0.0027355285
 C         -0.6956186913       -1.2049007982       -0.0016129999
 C          0.6859616394       -1.1921445822       -0.0001440974
 C          1.3717670452        0.0174988073        0.0005213668
 C          0.6525839989        1.2066867500       -0.0002326315
 C         -0.7293554225        1.1788031092       -0.0017926636
 O          2.7353863589       -0.0139481170        0.0011221549
 H         -3.3068067441       -1.0409997412       -0.1214425152
 H         -3.3002208256        0.3669014609        0.9448033914
 H         -3.3124584902        0.5921895888       -0.8004668666
 H         -1.2125738754       -2.1532906408       -0.0023891009
 H          1.2534543618       -2.1097244344       -0.0000569350
 H          1.1727220219        2.1540285550       -0.0001945307
 H         -1.2768926471        2.1099990992       -0.0028594326
 H          3.0937996025        0.8861581929        0.0010716034
