  14
        -19.32731505
 C         -2.4560111769       -0.0001310077        0.0061232176
 C         -0.9620926202       -0.0002652087       -0.0092209876
 C         -0.2363599591        1.1871729347       -0.0053316367
 C          1.1466473549        1.1316707837        0.0016084531
 N          1.8367747212        0.0003060345        0.0048692392
 C          1.1472676280       -1.1313653545        0.0017079846
 C         -0.2357554378       -1.1874182980       -0.0054141817
 H         -2.8467136199       -0.8893765007       -0.4812056258
 H         -2.8084516997        0.0036903780        1.0373164354
 H         -2.8473386289        0.8853299615       -0.4878411458
 H         -0.7419111080        2.1403943010       -0.0095356961
 H          1.7406993225        2.0360667753        0.0043513517
 H          1.7417898287       -2.0354920295        0.0037944703
 H         -0.7408076035       -2.1408600427       -0.0091017515
