  14
  -19.3273150500000       0.166850122562848      !
 C         -2.4560111769       -0.0001310077        0.0061232176
 C         -0.9620926202       -0.0002652087       -0.0092209876
 C         -0.2363599591        1.1871729347       -0.0053316367
 C          1.1466473549        1.1316707837        0.0016084531
 N          1.8367747212        0.0003060345        0.0048692392
 C          1.1472676280       -1.1313653545        0.0017079846
 C         -0.2357554378       -1.1874182980       -0.0054141817
 H         -2.8467136199       -0.8893765007       -0.4812056258
 H         -2.8084516997        0.0036903780        1.0373164354
 H         -2.8473386289        0.8853299615       -0.4878411458
 H         -0.7419111080        2.1403943010       -0.0095356961
 H          1.7406993225        2.0360667753        0.0043513517
 H          1.7417898287       -2.0354920295        0.0037944703
 H         -0.7408076035       -2.1408600427       -0.0091017515
  14
  -19.3273148800000       0.166820110072845      !
 C         -2.4560681272        0.0002334479       -0.0095323828
 C         -0.9621243732       -0.0007301871        0.0077312987
 C         -0.2363818354        1.1869532608        0.0049229710
 C          1.1465983727        1.1317014600       -0.0000515726
 N          1.8368306463        0.0003130962       -0.0021677470
 C          1.1473873757       -1.1313080168       -0.0000804142
 C         -0.2357500910       -1.1876070175        0.0049491537
 H         -2.8487846726       -0.9049267147        0.4457632394
 H         -2.8471102295        0.8684021513        0.5144490388
 H         -2.8069900057        0.0416506075       -1.0403184432
 H         -0.7422463438        2.1400012380        0.0079328704
 H          1.7406952303        2.0361329875       -0.0000917580
 H          1.7418900709       -2.0353705314       -0.0000597479
 H         -0.7405539965       -2.1412195088        0.0078459218
  14
  -19.3273142500000       0.166708934382155      !
 C         -2.4559152628        0.0009081495       -0.0092838462
 C         -0.9620840265       -0.0012537455        0.0074410598
 C         -0.2365591839        1.1866817157        0.0048235317
 C          1.1462736397        1.1317031637        0.0000352759
 N          1.8367622294        0.0003591883       -0.0021594740
 C          1.1475952879       -1.1313444846        0.0000541773
 C         -0.2356314862       -1.1879273090        0.0047942359
 H         -2.8457365076        0.8510499888        0.5445058424
 H         -2.8071978628        0.0788652005       -1.0378360951
 H         -2.8489738082       -0.9188556777        0.4152208443
 H         -0.7427726577        2.1395524659        0.0079525139
 H          1.7401930705        2.0361957398       -0.0008330892
 H          1.7422394413       -2.0353747559       -0.0006894061
 H         -0.7401111548       -2.1417376393        0.0079747199
  14
  -19.3273139700000       0.166659546749203      !
 C         -2.4559000263       -0.0017447587        0.0056931194
 C         -0.9620654399        0.0009881787       -0.0086941067
 C         -0.2360029216        1.1878674390       -0.0050954408
 C          1.1472314092        1.1316940620        0.0016250100
 N          1.8367568563        0.0002364311        0.0047257047
 C          1.1466220284       -1.1313306566        0.0015862755
 C         -0.2361909493       -1.1867200629       -0.0050225306
 H         -2.8088574788       -0.0825850257        1.0334311635
 H         -2.8486548684        0.9188915028       -0.4170468090
 H         -2.8444894109       -0.8506031330       -0.5509528603
 H         -0.7407648839        2.1415336956       -0.0094479094
 H          1.7415581566        2.0358494949        0.0026542214
 H          1.7408475747       -2.0356636618        0.0030938818
 H         -0.7421042209       -2.1396955541       -0.0093408076
  14
  -19.3273131600000       0.166516757752106      !
 C         -2.4559085243       -0.0024186615       -0.0089832701
 C         -0.9620789434        0.0015379207        0.0071278131
 C         -0.2358536154        1.1881679596        0.0045774400
 C          1.1474934500        1.1317234369        0.0000853805
 N          1.8367626858        0.0001986556       -0.0020264564
 C          1.1463725050       -1.1313297926        0.0000794283
 C         -0.2363442371       -1.1864366698        0.0046232964
 H         -2.8078133440       -0.1232763768       -1.0331172065
 H         -2.8441894326       -0.8301673061        0.5789258441
 H         -2.8498915755        0.9329571003        0.3788047764
 H         -0.7402644727        2.1420137501        0.0076944385
 H          1.7419656580        2.0358586866       -0.0003939753
 H          1.7404624119       -2.0357208476       -0.0008288689
 H         -0.7426549264       -2.1392515440        0.0075842918
  14
  -19.3273127500000       0.166444528480843      !
 C         -2.4559590487        0.0016786355        0.0052960441
 C         -0.9620751617       -0.0019305883       -0.0083220036
 C         -0.2366938987        1.1863319666       -0.0048408756
 C          1.1460140529        1.1317240363        0.0015737431
 N          1.8367776123        0.0004091133        0.0045475709
 C          1.1478849093       -1.1313586169        0.0014913506
 C         -0.2354877859       -1.1882983050       -0.0047799802
 H         -2.8432534662        0.8247947896       -0.5897944662
 H         -2.8493576438       -0.9366847765       -0.3758071710
 H         -2.8095662877        0.1306914249        1.0278194626
 H         -0.7433483263        2.1389607110       -0.0085977774
 H          1.7398058490        2.0362996086        0.0028967990
 H          1.7426609268       -2.0353217856        0.0027688910
 H         -0.7395631412       -2.1423461264       -0.0083035241
