  16
    -0.355767 !GC
 C          0.0000000000        0.0000000000        0.0000000000
 C          1.4940081817        0.0000000000        0.0000000000
 C          2.2263539152        1.1746266740        0.0000000000
 C          3.6121807544        1.1602198622        0.0018696417
 C          4.2816482502       -0.0483557604        0.0009826381
 C          3.5682535581       -1.2366056196        0.0018475862
 C          2.1811296764       -1.2205016085        0.0043678343
 O          1.3628567829       -2.3118365158        0.0091649946
 H         -0.3756390792       -1.0138580211       -0.0771778361
 H         -0.3781476543        0.4778822098        0.9018191098
 H         -0.3574813528        0.5664256999       -0.8571448145
 H          1.6955463856        2.1150931339       -0.0035013600
 H          4.1633750744        2.0880659617        0.0025452031
 H          5.3609219616       -0.0739279655        0.0002791596
 H          4.1185175886       -2.1693059349        0.0006928456
 H          0.4358519161       -2.0332250884        0.0156844692
  16
    -0.301530 !GC
 C          0.0000000000        0.0000000000        0.0000000000
 C          1.4946060809        0.0000000000        0.0000000000
 C          2.2613749691        1.1496229290        0.0000000000
 C          3.6478054033        1.0882404159       -0.0033760672
 C          4.2806860549       -0.1391934418       -0.0068822430
 C          3.5325133965       -1.3059206782       -0.0065235823
 C          2.1482577418       -1.2408010417       -0.0035034691
 O          1.3602546981       -2.3512589133       -0.0030214089
 H         -0.3968498549        0.6279229116        0.7891529024
 H         -0.3680878604        0.3509475854       -0.9664684916
 H         -0.3692392436       -1.0196151859        0.1033408259
 H          1.7699454934        2.1116600238        0.0027397841
 H          4.2269755443        1.9988539234       -0.0023744284
 H          5.3586075274       -0.1975072026       -0.0082312805
 H          4.0274340254       -2.2668152172       -0.0067380102
 H          1.9042722735       -3.1528913390       -0.0042501505
  16
    -0.266663 !GC
 C          0.0000000000        0.0000000000        0.0000000000
 C          1.4946021697        0.0000000000        0.0000000000
 C          2.2613256100        1.1495743816        0.0000000000
 C          3.6477838253        1.0878711186        0.0034419913
 C          4.2805955456       -0.1397299341        0.0060660538
 C          3.5323679003       -1.3063077189        0.0063401961
 C          2.1480854924       -1.2408117151        0.0042337160
 O          1.3599854213       -2.3512964821        0.0037246111
 H         -0.3829957173        0.5629756156       -0.8503694666
 H         -0.3829158373       -1.0168591145       -0.0353500933
 H         -0.3685293824        0.4781026781        0.9073284895
 H          1.7703780746        2.1117348161       -0.0037203015
 H          4.2268191028        1.9984289031        0.0034511303
 H          5.3585818201       -0.1976068847        0.0080955850
 H          4.0271523325       -2.2672233135        0.0079949605
 H          1.9036469063       -3.1530534773        0.0027946066
  16
    -0.179450 !GC
 C          0.0000000000        0.0000000000        0.0000000000
 C          1.4946652526        0.0000000000        0.0000000000
 C          2.2613437267        1.1496589644        0.0000000000
 C          3.6478129683        1.0881176866        0.0031049252
 C          4.2806795931       -0.1394690607        0.0041505727
 C          3.5325148885       -1.3060754573        0.0046251065
 C          2.1482036873       -1.2407272229        0.0047011321
 O          1.3604017176       -2.3513877670        0.0061002557
 H         -0.3833970263        0.4992743179        0.8888097280
 H         -0.3674580728        0.5475343837       -0.8675008668
 H         -0.3838496595       -1.0153862112       -0.0457454880
 H          1.7701374126        2.1117232171       -0.0038830464
 H          4.2268054078        1.9987197050        0.0034070995
 H          5.3586721430       -0.1973476416        0.0050177591
 H          4.0274137441       -2.2668574711        0.0044799620
 H          1.9047144748       -3.1526146712        0.0090275035
  16
    -0.165353 !GC
 C          0.0000000000        0.0000000000        0.0000000000
 C          1.4914106824        0.0000000000        0.0000000000
 C          2.2529448664        1.1527890226        0.0000000000
 C          3.6396656088        1.0969381496       -0.0023247031
 C          4.2750796589       -0.1285585425       -0.0055902226
 C          3.5299126955       -1.2989383470       -0.0045407837
 C          2.1459359012       -1.2404197249       -0.0003768175
 O          1.2833830895       -2.2949333763        0.0026830710
 H         -0.3698651909        1.0199139774       -0.0143101330
 H         -0.3894815966       -0.5610961286       -0.8481888564
 H         -0.3540519959       -0.4662520623        0.9174419093
 H          1.7526809647        2.1099467888       -0.0002244693
 H          4.2166438330        2.0089544027       -0.0022176388
 H          5.3533169744       -0.1835712827       -0.0076126313
 H          4.0538773597       -2.2466148357       -0.0069221806
 H          0.3676337843       -1.9801045030        0.0133677455
  16
    -0.164869 !GC
 C          0.0000000000        0.0000000000        0.0000000000
 C          1.4914480275        0.0000000000        0.0000000000
 C          2.2529017857        1.1528872059        0.0000000000
 C          3.6396256175        1.0972458744       -0.0020221575
 C          4.2751489276       -0.1282052634       -0.0062160165
 C          3.5300814322       -1.2986423099       -0.0050606489
 C          2.1460737519       -1.2403117277        0.0001568102
 O          1.2839672214       -2.2951582868        0.0048281760
 H         -0.3851362880       -0.5463845604       -0.8504850238
 H         -0.3739470313       -0.4262028021        0.9327796854
 H         -0.3542844128        1.0281946400       -0.0337218719
 H          1.7523636688        2.1099081309       -0.0002995062
 H          4.2165162436        2.0093564749       -0.0010844971
 H          5.3533924436       -0.1831474057       -0.0085749654
 H          4.0540886725       -2.2462682686       -0.0070133668
 H          0.3683481237       -1.9800743219        0.0135663349
  16
    -0.160236 !GC
 C          0.0000000000        0.0000000000        0.0000000000
 C          1.4915203204        0.0000000000        0.0000000000
 C          2.2525127679        1.1532156411        0.0000000000
 C          3.6392385902        1.0985066343        0.0007719381
 C          4.2754383894       -0.1265951981        0.0005804894
 C          3.5308349180       -1.2973278599        0.0009578748
 C          2.1467473160       -1.2399241608        0.0017637443
 O          1.2858622877       -2.2958374234        0.0034326786
 H         -0.4037584731        1.0067465976       -0.0518355470
 H         -0.3548127622       -0.5997590432       -0.8354815202
 H         -0.3550460328       -0.5078019058        0.8946070150
 H          1.7514437940        2.1099612716       -0.0013302814
 H          4.2155582133        2.0109319230        0.0023276270
 H          5.3536916352       -0.1811218516        0.0013824519
 H          4.0552832907       -2.2447078115        0.0024740571
 H          0.3696747954       -1.9823242725       -0.0032248323
  16
    -0.155433 !GC
 C          0.0000000000        0.0000000000        0.0000000000
 C          1.4914875173        0.0000000000        0.0000000000
 C          2.2530350154        1.1527524043        0.0000000000
 C          3.6397568051        1.0969695559        0.0039174748
 C          4.2751920017       -0.1285382267        0.0089054173
 C          3.5299761852       -1.2988668059        0.0074976221
 C          2.1459921612       -1.2403956970        0.0019434727
 O          1.2835504985       -2.2949811165       -0.0005891289
 H         -0.3700215255       -0.5228758994       -0.8758538936
 H         -0.3695453081       -0.4818561435        0.8994667473
 H         -0.3739716362        1.0259610851       -0.0249588705
 H          1.7527640703        2.1099014457       -0.0030265996
 H          4.2166858272        2.0090201941        0.0036805032
 H          5.3533966080       -0.1837097593        0.0125480400
 H          4.0539058324       -2.2465719970        0.0112652377
 H          0.3679451954       -1.9801285553       -0.0079870184
  16
    -0.154882 !GC
 C          0.0000000000        0.0000000000        0.0000000000
 C          1.4946509959        0.0000000000        0.0000000000
 C          2.2601729136        1.1508023370        0.0000000000
 C          3.6465757407        1.0910300782       -0.0042788027
 C          4.2806374851       -0.1360408955       -0.0090493835
 C          3.5336235002       -1.3033010235       -0.0080730849
 C          2.1492488667       -1.2398462102       -0.0029450365
 O          1.3624890680       -2.3513267014        0.0006546531
 H         -0.3844509595       -1.0022133120        0.1650784114
 H         -0.3667016300        0.6475369071        0.7960147791
 H         -0.3833818227        0.3924723881       -0.9410905024
 H          1.7673434109        2.1120304038        0.0018463475
 H          4.2244963791        2.0024066265       -0.0038664779
 H          5.3585498575       -0.1933995642       -0.0122793734
 H          4.0299780811       -2.2634082131       -0.0111202268
 H          1.9073906723       -3.1524366567        0.0066358859
  16
    -0.151454 !GC
 C          0.0000000000        0.0000000000        0.0000000000
 C          1.4915248624        0.0000000000        0.0000000000
 C          2.2529919386        1.1528505884        0.0000000000
 C          3.6397154815        1.0972781574        0.0042197414
 C          4.2752635232       -0.1281884624        0.0082794487
 C          3.5301430028       -1.2985718570        0.0069777651
 C          2.1461209753       -1.2402822973        0.0024771067
 O          1.2841097173       -2.2951961273        0.0015586984
 H         -0.3852929453       -0.4628520946        0.8987286081
 H         -0.3539138808        1.0264169080       -0.0678049874
 H         -0.3741984173       -0.5162288161       -0.8865384380
 H          1.7524469657        2.1098626632       -0.0031017539
 H          4.2165533157        2.0094257184        0.0048131766
 H          5.3534759881       -0.1832917522        0.0115856138
 H          4.0541093796       -2.2462269730        0.0111738149
 H          0.3686640448       -1.9801147814       -0.0077869313
  16
    -0.147848 !GC
 C          0.0000000000        0.0000000000        0.0000000000
 C          1.4946318187        0.0000000000        0.0000000000
 C          2.2614357454        1.1496089611        0.0000000000
 C          3.6478712684        1.0881802229       -0.0040153862
 C          4.2806913319       -0.1392805689       -0.0081727568
 C          3.5324839351       -1.3059798002       -0.0077201389
 C          2.1482391618       -1.2408252517       -0.0035711365
 O          1.3600762806       -2.3511592962       -0.0027840894
 H         -0.3820493425        0.3575523822       -0.9525135871
 H         -0.3681860172       -1.0185743244        0.1398408496
 H         -0.3843243591        0.6058289983        0.8156628945
 H          1.7700223369        2.1116845425        0.0026524509
 H          4.2270866190        1.9987429783       -0.0035516345
 H          5.3586091932       -0.1976640497       -0.0103493791
 H          4.0274729519       -2.2667874992       -0.0101604245
 H          1.9039073003       -3.1529081057       -0.0028197261
  16
    -0.147104 !GC
 C          0.0000000000        0.0000000000        0.0000000000
 C          1.4914737653        0.0000000000        0.0000000000
 C          2.2529626198        1.1528733995        0.0000000000
 C          3.6396923395        1.0971854604       -0.0026616285
 C          4.2751548381       -0.1282925411       -0.0075056783
 C          3.5300529486       -1.2987019116       -0.0062552991
 C          2.1460577374       -1.2403371309        0.0000904435
 O          1.2838035719       -2.2950504817        0.0051469620
 H         -0.3702690588       -0.4528135445        0.9135577004
 H         -0.3740446269        1.0238340332       -0.0575632453
 H         -0.3694734019       -0.5510472700       -0.8585399153
 H          1.7524404275        2.1099328060       -0.0003871364
 H          4.2166287985        2.0092450723       -0.0022624734
 H          5.3533942006       -0.1833040971       -0.0106928927
 H          4.0541215858       -2.2462372332       -0.0104731709
 H          0.3682062880       -1.9799042917        0.0128442264
  16
    -0.140529 !GC
 C          0.0000000000        0.0000000000        0.0000000000
 C          1.4946252581        0.0000000000        0.0000000000
 C          2.2601121135        1.1508162652        0.0000000000
 C          3.6465099148        1.0910901434       -0.0036395063
 C          4.2806325071       -0.1359540178       -0.0077589045
 C          3.5336529590       -1.3032419505       -0.0068767722
 C          2.1492667028       -1.2398217546       -0.0028776221
 O          1.3626646481       -2.3514250337        0.0004173954
 H         -0.3992172743        0.3700015557       -0.9363042058
 H         -0.3666036654       -1.0061361018        0.2020136015
 H         -0.3682340786        0.6124057246        0.8262209211
 H          1.7672665430        2.1120058638        0.0019337037
 H          4.2243853983        2.0025173299       -0.0026893168
 H          5.3585492167       -0.1932432797       -0.0101612555
 H          4.0299411598       -2.2634365105       -0.0076973862
 H          1.9077545295       -3.1524260557        0.0052054167
  16
    -0.051473 !GC
 C          0.0000000000        0.0000000000        0.0000000000
 C          1.4971329273        0.0000000000        0.0000000000
 C          2.2350139811        1.1714499572        0.0000000000
 C          3.6206718451        1.1514213394       -0.0065743944
 C          4.2874943245       -0.0590811717       -0.0119749133
 C          3.5708642622       -1.2438011820       -0.0119362872
 C          2.1833626037       -1.2211054870       -0.0075625962
 O          1.4411810245       -2.3646640790       -0.0074100687
 H         -0.3860421425       -0.6714058218       -0.7578680831
 H         -0.3730593742       -0.3067846363        0.9786378985
 H         -0.3729011883        1.0086382567       -0.1712046967
 H          1.7129531525        2.1172178492        0.0061135681
 H          4.1744118170        2.0778003674       -0.0056675358
 H          5.3664738581       -0.0885363186       -0.0147019068
 H          4.0925137720       -2.1905998933       -0.0136645711
 H          2.0193980272       -3.1417279828       -0.0092621921
  16
    -0.026304 !GC
 C          0.0000000000        0.0000000000        0.0000000000
 C          1.4972035801        0.0000000000        0.0000000000
 C          2.2348748850        1.1715932309        0.0000000000
 C          3.6205798103        1.1516546943        0.0008210414
 C          4.2875650462       -0.0589291388       -0.0002988178
 C          3.5710743791       -1.2436092972       -0.0001215306
 C          2.1834709723       -1.2209065533        0.0012483552
 O          1.4421389508       -2.3650585552        0.0036988898
 H         -0.4025276551       -0.5525924851       -0.8395803239
 H         -0.3566448778       -0.4444934175        0.9309331147
 H         -0.3726466664        1.0229761263        0.0130428289
 H          1.7127300657        2.1172261395       -0.0005195608
 H          4.1740018435        2.0781609494        0.0023850630
 H          5.3666124118       -0.0878093227       -0.0003266554
 H          4.0926708682       -2.1903338411        0.0008729966
 H          2.0216292723       -3.1408962592        0.0074720108
  16
    -0.025725 !GC
 C          0.0000000000        0.0000000000        0.0000000000
 C          1.4971470579        0.0000000000        0.0000000000
 C          2.2362153648        1.1703342237        0.0000000000
 C          3.6220024351        1.1485342623        0.0007818920
 C          4.2876442636       -0.0625184135        0.0012057384
 C          3.5698505726       -1.2466154201        0.0007507923
 C          2.1823593733       -1.2220222816        0.0000838943
 O          1.4391140348       -2.3648038079       -0.0018877626
 H         -0.3850021651       -0.4847549033        0.8931492631
 H         -0.3738151643        1.0250754927       -0.0216287463
 H         -0.3734011529       -0.5051628596       -0.8859329257
 H          1.7157301131        2.1170015956        0.0003642273
 H          4.1768316897        2.0741690415        0.0015681964
 H          5.3667156288       -0.0924909798        0.0025689860
 H          4.0900577620       -2.1941258826        0.0019266399
 H          2.0167478955       -3.1419789079       -0.0067561660
  16
    -0.023880 !GC
 C          0.0000000000        0.0000000000        0.0000000000
 C          1.4971406234        0.0000000000        0.0000000000
 C          2.2348595121        1.1715095949        0.0000000000
 C          3.6205589503        1.1514087040        0.0011565064
 C          4.2874922578       -0.0591925007        0.0016179016
 C          3.5709378534       -1.2438456228        0.0015912980
 C          2.1833564167       -1.2209923945        0.0007767070
 O          1.4417151484       -2.3649802838        0.0013388620
 H         -0.4021375387       -0.4948114677        0.8753459217
 H         -0.3722223427        1.0198932130       -0.0846462798
 H         -0.3571839787       -0.5103325120       -0.8970564454
 H          1.7129711603        2.1172469679       -0.0003567747
 H          4.1740239955        2.0778728134        0.0024273306
 H          5.3665343753       -0.0880719119        0.0027551134
 H          4.0924210338       -2.1907060363        0.0043880615
 H          2.0205764847       -3.1413825664        0.0012775771
  16
    -0.023463 !GC
 C          0.0000000000        0.0000000000        0.0000000000
 C          1.4939890045        0.0000000000        0.0000000000
 C          2.2276536360        1.1734703613        0.0000000000
 C          3.6135661689        1.1574125360        0.0021321646
 C          4.2818014788       -0.0515879411        0.0018597574
 C          3.5671990791       -1.2393118172        0.0022010636
 C          2.1801485879       -1.2215042718        0.0037393771
 O          1.3605068050       -2.3116591215        0.0057678751
 H         -0.3732291467        0.5736599925       -0.8415364001
 H         -0.3796542293       -1.0208036853       -0.0604781692
 H         -0.3585104186        0.4453212615        0.9218836753
 H          1.6982228485        2.1148425884       -0.0026904812
 H          4.1660773594        2.0844832579        0.0028602397
 H          5.3611086972       -0.0781829449        0.0022108762
 H          4.1161352666       -2.1727889580        0.0016774271
 H          0.4340091808       -2.0318332833        0.0170455713
  16
    -0.021698 !GC
 C          0.0000000000        0.0000000000        0.0000000000
 C          1.4939748739        0.0000000000        0.0000000000
 C          2.2264474460        1.1745805930        0.0000000000
 C          3.6122305485        1.1602891764       -0.0052262768
 C          4.2816394310       -0.0481582513       -0.0113106538
 C          3.5682054012       -1.2365025272       -0.0104649041
 C          2.1811617137       -1.2205939117       -0.0038874863
 O          1.3625448952       -2.3115996622        0.0005906277
 H         -0.3743055944        0.5928329736        0.8235744844
 H         -0.3789005436        0.3832575127       -0.9483775864
 H         -0.3579665815       -1.0219053592        0.1024435113
 H          1.6954344440        2.1150481740        0.0030726518
 H          4.1636502318        2.0881016194       -0.0043910143
 H          5.3608493595       -0.0742357269       -0.0150531379
 H          4.1185589011       -2.1692221948       -0.0139488404
 H          0.4354083656       -2.0329598676        0.0098622411
  16
    -0.021419 !GC
 C          0.0000000000        0.0000000000        0.0000000000
 C          1.4970896525        0.0000000000        0.0000000000
 C          2.2348301745        1.1715327989        0.0000000000
 C          3.6205236508        1.1513261624       -0.0056992428
 C          4.2873499978       -0.0592737676       -0.0141652444
 C          3.5708330140       -1.2439605567       -0.0116456420
 C          2.1833051181       -1.2210501305       -0.0016079901
 O          1.4414225023       -2.3648762489        0.0041378253
 H         -0.3872416782       -0.4855489655        0.8907340398
 H         -0.3923140731        1.0171214990       -0.0743876692
 H         -0.3525541137       -0.5456189810       -0.8692072265
 H          1.7129702213        2.1173138041        0.0023593209
 H          4.1740924828        2.0777033494       -0.0046003921
 H          5.3664037484       -0.0880518990       -0.0195135076
 H          4.0924109642       -2.1906942454       -0.0170742412
 H          2.0198619264       -3.1416413798       -0.0105267863
  16
    -0.005000 !GC
 C          0.0000000000        0.0000000000        0.0000000000
 C          1.4940517088        0.0000000000        0.0000000000
 C          2.2265386004        1.1745443045        0.0000000000
 C          3.6123337106        1.1603127319        0.0009929734
 C          4.2817806008       -0.0481552566        0.0031755403
 C          3.5682929660       -1.2364471259        0.0015598292
 C          2.1812267343       -1.2205754443       -0.0015862531
 O          1.3627056636       -2.3116418898       -0.0025857736
 H         -0.3744617803        0.4163060012       -0.9254745827
 H         -0.3588968710       -1.0198466791        0.1131576818
 H         -0.3778626643        0.5735299808        0.8484299468
 H          1.6955105416        2.1150080773        0.0002608964
 H          4.1636995391        2.0881606592        0.0014753347
 H          5.3609709927       -0.0743973392        0.0051006296
 H          4.1186163528       -2.1692012986        0.0042335066
 H          0.4357347661       -2.0329897565       -0.0114195110
  16
    -0.004725 !GC
 C          0.0000000000        0.0000000000        0.0000000000
 C          1.4971804918        0.0000000000        0.0000000000
 C          2.2361219517        1.1703811942        0.0000000000
 C          3.6219216761        1.1484851569        0.0078779414
 C          4.2875971081       -0.0626814238        0.0135124381
 C          3.5698478002       -1.2466870213        0.0130863992
 C          2.1822984567       -1.2219121636        0.0083572123
 O          1.4394339296       -2.3650113288        0.0070836258
 H         -0.3863557507       -0.3716760440       -0.9479866633
 H         -0.3730740747       -0.6419624374        0.7965274060
 H         -0.3729225881        1.0062452535        0.1682160743
 H          1.7158575028        2.1170350233       -0.0061906175
 H          4.1765255193        2.0741542479        0.0084920585
 H          5.3667200688       -0.0921407271        0.0179106108
 H          4.0899583845       -2.1941686041        0.0165585836
 H          2.0175376153       -3.1416544762        0.0051939306
  16
    -0.003076 !GC
 C          0.0000000000        0.0000000000        0.0000000000
 C          1.4940612974        0.0000000000        0.0000000000
 C          2.2272557710        1.1737876810        0.0000000000
 C          3.6131354161        1.1586657919        0.0049157583
 C          4.2820268652       -0.0499605677        0.0086525559
 C          3.5679003165       -1.2379704340        0.0082138606
 C          2.1808086879       -1.2211003547        0.0053395459
 O          1.3624471749       -2.3122767715        0.0044154986
 H         -0.3919320902        0.4445042356        0.9134849931
 H         -0.3605503760        0.5610125758       -0.8585909444
 H         -0.3592695742       -1.0187184101       -0.1012450475
 H          1.6973049466        2.1148671982       -0.0037248121
 H          4.1650659149        2.0860370292        0.0062564281
 H          5.3613250694       -0.0761352920        0.0121650519
 H          4.1172672815       -2.1711868276        0.0111622894
 H          0.4354112749       -2.0340023992        0.0002821895
