  16
  -23.1311256000000       0.286488201440435      !
 C         -1.8527865784       -1.4099374591       -0.0001777379
 C         -0.5280212684       -0.7124635929        0.0001861863
 C          0.6708427788       -1.4048833900        0.0002192487
 C          1.8873323006       -0.7409675499       -0.0000410732
 C          1.9128112306        0.6409072966       -0.0001095587
 C          0.7265301260        1.3547645623       -0.0000166770
 C         -0.4903199851        0.6875980314        0.0001074306
 O         -1.6801860474        1.3532061649        0.0000080607
 H         -2.4247277952       -1.1228355321       -0.8813674485
 H         -1.7229954377       -2.4879910540        0.0077451367
 H         -2.4316037912       -1.1104234444        0.8722740754
 H          0.6501795861       -2.4848786463       -0.0000754950
 H          2.8089685267       -1.3023600637       -0.0003348856
 H          2.8538568629        1.1696830299       -0.0003960921
 H          0.7466364895        2.4354759797       -0.0002818488
 H         -1.5316284296        2.3102289523        0.0003088606
  16
  -23.1311253100000       0.286400298431370      !
 C         -1.8527671823       -1.4100041850       -0.0001957614
 C         -0.5280131548       -0.7124689740        0.0001534721
 C          0.6708226751       -1.4049069186        0.0001926927
 C          1.8872910669       -0.7409882396        0.0000124427
 C          1.9127995872        0.6409200063       -0.0001055059
 C          0.7265584367        1.3547874152       -0.0000986282
 C         -0.4902870936        0.6876105971        0.0000856082
 O         -1.6801863944        1.3532247612        0.0000664058
 H         -2.4343761614       -1.1045976718        0.8683943581
 H         -2.4216689642       -1.1281245918       -0.8851136844
 H         -1.7232799399       -2.4880799928        0.0146201080
 H          0.6501469452       -2.4849011428        0.0002820864
 H          2.8089043985       -1.3024061934       -0.0001372938
 H          2.8538311803        1.1697162395       -0.0000993930
 H          0.7466825938        2.4355241880       -0.0004602970
 H         -1.5317359870        2.3102858430        0.0009319076
  16
  -23.1311247500000       0.286230631009519      !
 C         -1.8528208084       -1.4097241439       -0.0008004072
 C         -0.5279766852       -0.7124389746        0.0001112046
 C          0.6709123627       -1.4048674532        0.0003761730
 C          1.8873880211       -0.7409706010        0.0003859323
 C          1.9128768845        0.6408827271       -0.0004756960
 C          0.7266041156        1.3546636296       -0.0006089993
 C         -0.4903248100        0.6875531408       -0.0004836478
 O         -1.6803832270        1.3530585986        0.0008018881
 H         -1.7233357774       -2.4877282146        0.0224996199
 H         -2.4381259675       -1.0976865764        0.8629543738
 H         -2.4177346230       -1.1343724764       -0.8904049208
 H          0.6502621621       -2.4848522521        0.0013508552
 H          2.8090033851       -1.3023257152        0.0031424083
 H          2.8539075244        1.1696856970        0.0013191640
 H          0.7467695597        2.4353614398        0.0011873791
 H         -1.5321533755        2.3102013209        0.0030423007
  16
  -23.1294167600000       4.696542443546969E-002 !
 C         -1.8350518116       -1.4537302084       -0.0000508837
 C         -0.5282771090       -0.7116925189        0.0000246584
 C          0.6798028514       -1.3936077120        0.0001587753
 C          1.8904703950       -0.7232355560       -0.0000543488
 C          1.9069362084        0.6605115292       -0.0000347861
 C          0.7170752552        1.3625429484       -0.0000033596
 C         -0.4979258108        0.6867722384       -0.0000582380
 O         -1.6327582512        1.4441212127        0.0000283765
 H         -1.6532078227       -2.5245514612       -0.0003012084
 H         -2.4210849015       -1.2114302110        0.8865700071
 H         -2.4211464107       -1.2109756089       -0.8865046765
 H          0.6691214604       -2.4739609625       -0.0001236726
 H          2.8155353206       -1.2789104319       -0.0000932063
 H          2.8438901132        1.1960794453        0.0001135391
 H          0.7011834403        2.4414143958        0.0000329201
 H         -2.4175829739        0.8766452158        0.0000725318
  16
  -23.1294167500000       4.696492745235942E-002 !
 C         -1.8350772707       -1.4538858980       -0.0005101840
 C         -0.5282794143       -0.7116874830       -0.0001085948
 C          0.6797956043       -1.3935823388        0.0002089847
 C          1.8904729028       -0.7232363371        0.0004838420
 C          1.9069485925        0.6605137427       -0.0003216619
 C          0.7170712330        1.3625415664       -0.0006414619
 C         -0.4979311514        0.6867948846       -0.0000921125
 O         -1.6327204247        1.4442379979        0.0006262486
 H         -2.4225979859       -1.2088217059       -0.8854921081
 H         -1.6531375499       -2.5247963907       -0.0039429670
 H         -2.4199483059       -1.2141677514        0.8876752908
 H          0.6690983067       -2.4739296516        0.0000916102
 H          2.8155319066       -1.2789067299        0.0012615758
 H          2.8439073212        1.1960813466       -0.0001800083
 H          0.7011842764        2.4414138464       -0.0004592692
 H         -2.4175788593        0.8768060458        0.0027971592
  16
  -23.1294164600000       4.695051723084654E-002 !
 C         -1.8350385657       -1.4537938166        0.0007014570
 C         -0.5283004669       -0.7116861378       -0.0000217464
 C          0.6797823384       -1.3935954477       -0.0004269936
 C          1.8904688985       -0.7232176428       -0.0002724184
 C          1.9069170067        0.6605139025        0.0003125990
 C          0.7170592138        1.3625197709        0.0005164998
 C         -0.4979375105        0.6867589048        0.0000575526
 O         -1.6327017348        1.4441746294       -0.0006871639
 H         -2.4238231893       -1.2058114537        0.8839256440
 H         -2.4184768104       -1.2168401825       -0.8890837442
 H         -1.6531074414       -2.5246090489        0.0078638196
 H          0.6690910607       -2.4739493023       -0.0002488744
 H          2.8155468180       -1.2788724845       -0.0000992940
 H          2.8438563931        1.1960860511        0.0012447659
 H          0.7011774899        2.4413922181        0.0011201625
 H         -2.4175110582        0.8767957962       -0.0041455541
