  16
        -23.13112560
 C         -1.8527865784       -1.4099374591       -0.0001777379
 C         -0.5280212684       -0.7124635929        0.0001861863
 C          0.6708427788       -1.4048833900        0.0002192487
 C          1.8873323006       -0.7409675499       -0.0000410732
 C          1.9128112306        0.6409072966       -0.0001095587
 C          0.7265301260        1.3547645623       -0.0000166770
 C         -0.4903199851        0.6875980314        0.0001074306
 O         -1.6801860474        1.3532061649        0.0000080607
 H         -2.4247277952       -1.1228355321       -0.8813674485
 H         -1.7229954377       -2.4879910540        0.0077451367
 H         -2.4316037912       -1.1104234444        0.8722740754
 H          0.6501795861       -2.4848786463       -0.0000754950
 H          2.8089685267       -1.3023600637       -0.0003348856
 H          2.8538568629        1.1696830299       -0.0003960921
 H          0.7466364895        2.4354759797       -0.0002818488
 H         -1.5316284296        2.3102289523        0.0003088606
