  10
    -1.508044 !GC
 C          0.0000000000        0.0000000000        0.0000000000
 C          1.5263219906        0.0000000000        0.0000000000
 C          2.0927032197        1.3771028678        0.0000000000
 O          1.6226322552        2.3462278604       -0.5435084640
 H         -0.3749791347        0.5755788036       -0.8423586902
 H         -0.3747062560        0.4584349045        0.9121886915
 H         -0.3771478463       -1.0157083783       -0.0664509111
 H          1.9316086652       -0.5550249618        0.8465180287
 H          1.8897846074       -0.4659428125       -0.9208871767
 H          3.0316521330        1.4653207890        0.5794086659
  10
    -1.443647 !GC
 C          0.0000000000        0.0000000000        0.0000000000
 C          1.5262308990        0.0000000000        0.0000000000
 C          2.0933261147        1.3768559380        0.0000000000
 O          1.6339727493        2.3415773516        0.5604683646
 H         -0.3730535315        0.4644259801       -0.9092038577
 H         -0.3736931537        0.5723151264        0.8454332157
 H         -0.3804337527       -1.0147386607        0.0647583590
 H          1.8882091435       -0.4630427339        0.9232041317
 H          1.9338877110       -0.5578595367       -0.8435258844
 H          3.0144891856        1.4724995081       -0.6061703928
  10
    -0.979255 !GC
 C          0.0000000000        0.0000000000        0.0000000000
 C          1.5167415989        0.0000000000        0.0000000000
 C          2.0702670590        1.3834814611        0.0000000000
 O          3.2318647591        1.7024632329        0.0489704763
 H         -0.3690721781       -0.5846237344        0.8367026389
 H         -0.3600333260       -0.4432829645       -0.9269883531
 H         -0.3684041032        1.0210877308        0.0656649896
 H          1.9048975550       -0.5181552800        0.8805730344
 H          1.9021859502       -0.5094876608       -0.8871845677
 H          1.2794293210        2.1574257126       -0.0307992878
  10
    -0.719833 !GC
 C          0.0000000000        0.0000000000        0.0000000000
 C          1.5161127891        0.0000000000        0.0000000000
 C          2.0741981656        1.3828505634        0.0000000000
 O          1.4399033147        2.4084241484       -0.0606949739
 H         -0.3722971094       -0.4273911055       -0.9273186556
 H         -0.3661901394        1.0214283541        0.0809331704
 H         -0.3665918595       -0.5807831476        0.8414389522
 H          1.9035687665       -0.5272753418        0.8759787084
 H          1.8988874980       -0.5151517888       -0.8857189977
 H          3.1785783214        1.4159944968        0.0441814701
  10
    -0.655667 !GC
 C          0.0000000000        0.0000000000        0.0000000000
 C          1.5196701569        0.0000000000        0.0000000000
 C          2.0561228092        1.3898257472        0.0000000000
 O          1.5991248201        2.3389467537       -0.5881310509
 H         -0.3717101199       -0.3675486174       -0.9525496595
 H         -0.3652827336        1.0147714211        0.1462322280
 H         -0.3629955016       -0.6327608685        0.8044199620
 H          1.9198286002       -0.5598478202        0.8463944794
 H          1.8733550310       -0.4592789955       -0.9289834411
 H          2.9694308413        1.5011050030        0.6137264962
  10
    -0.603574 !GC
 C          0.0000000000        0.0000000000        0.0000000000
 C          1.5226764330        0.0000000000        0.0000000000
 C          2.1107539560        1.3695292388        0.0000000000
 O          2.0513654986        2.1680184318       -0.9037162364
 H         -0.3749860295        0.6250483881       -0.8066803942
 H         -0.3776355448        0.3990637731        0.9382578401
 H         -0.3789435809       -1.0087446672       -0.1329290918
 H          1.9574361257       -0.6047729246        0.7945374325
 H          1.8718983658       -0.4273164022       -0.9477486884
 H          2.6125346744        1.6438862219        0.9472759840
  10
    -0.600869 !GC
 C          0.0000000000        0.0000000000        0.0000000000
 C          1.5231400919        0.0000000000        0.0000000000
 C          2.1066163881        1.3713424440        0.0000000000
 O          2.0427659125        2.1713708081        0.9019444901
 H         -0.3769958781        0.4077565346       -0.9346429746
 H         -0.3755897232        0.6171746693        0.8126553190
 H         -0.3784404224       -1.0103666836        0.1232896356
 H          1.8719684819       -0.4279032100        0.9475254713
 H          1.9566031504       -0.6023828240       -0.7971883771
 H          2.6095330072        1.6455278560       -0.9466240256
  10
    -0.566784 !GC
 C          0.0000000000        0.0000000000        0.0000000000
 C          1.5225884955        0.0000000000        0.0000000000
 C          2.1110647654        1.3694608017        0.0000000000
 O          2.0811685182        2.1552633538       -0.9160985974
 H         -0.3776224898        0.6287646774       -0.8024282932
 H         -0.3735828352        0.3984080977        0.9400841598
 H         -0.3807509851       -1.0084698174       -0.1288101980
 H          1.9581648663       -0.6051157488        0.7939582677
 H          1.8719096210       -0.4270373040       -0.9479866795
 H          2.5833211475        1.6565372984        0.9587921494
  10
    -0.505383 !GC
 C          0.0000000000        0.0000000000        0.0000000000
 C          1.5197370247        0.0000000000        0.0000000000
 C          2.0555959995        1.3900463691        0.0000000000
 O          1.5492126234        2.3581770882        0.5120474686
 H         -0.3713682860        1.0206767377        0.0290047001
 H         -0.3554247034       -0.5234178812        0.8842006424
 H         -0.3728396726       -0.5007959993       -0.8898219497
 H          1.8760561302       -0.4694579351        0.9224138830
 H          1.9164367565       -0.5504722427       -0.8545245683
 H          2.9977594572        1.4902833754       -0.5707163841
  10
    -0.485128 !GC
 C          0.0000000000        0.0000000000        0.0000000000
 C          1.5161067332        0.0000000000        0.0000000000
 C          2.0745613774        1.3826835175        0.0000000000
 O          1.4412000650        2.4082198585       -0.0683693358
 H         -0.3715341007        1.0163145853        0.0990285073
 H         -0.3579182149       -0.5797393113        0.8475152085
 H         -0.3754423490       -0.4393200100       -0.9206742635
 H          1.9029648411       -0.5279373088        0.8757320891
 H          1.8991849884       -0.5147146690       -0.8857029224
 H          3.1788394020        1.4153951182        0.0496823684
  10
    -0.455948 !GC
 C          0.0000000000        0.0000000000        0.0000000000
 C          1.5234040305        0.0000000000        0.0000000000
 C          2.1068803763        1.3703539356        0.0000000000
 O          3.2772755712        1.6589771362       -0.0210142613
 H         -0.3773625810        0.4908243548        0.8951699853
 H         -0.3683376473       -1.0231805860        0.0120212892
 H         -0.3785480910        0.5083756830       -0.8800354811
 H          1.9163826035       -0.5125363153        0.8812273089
 H          1.9188096419       -0.5165168806       -0.8776461356
 H          1.3373663344        2.1667279433        0.0303455210
  10
    -0.453393 !GC
 C          0.0000000000        0.0000000000        0.0000000000
 C          1.5233934326        0.0000000000        0.0000000000
 C          2.1066966036        1.3703909100        0.0000000000
 O          3.2771248214        1.6593459376       -0.0074102001
 H         -0.3723395110       -1.0199228525       -0.0068884296
 H         -0.3694830196        0.5047993130       -0.8900391113
 H         -0.3825502813        0.5205054785        0.8743327898
 H          1.9167195140       -0.5133389632        0.8805096784
 H          1.9184611583       -0.5153784438       -0.8784938465
 H          1.3363983988        2.1665315659        0.0105886234
  10
    -0.444413 !GC
 C          0.0000000000        0.0000000000        0.0000000000
 C          1.5233644145        0.0000000000        0.0000000000
 C          2.1075710383        1.3700929636        0.0000000000
 O          3.2779716203        1.6584007236       -0.0249750594
 H         -0.3772302382       -1.0209045433       -0.0044969816
 H         -0.3739022483        0.5081957681       -0.8839554213
 H         -0.3731895051        0.5005281141        0.8885811898
 H          1.9159691104       -0.5118475541        0.8818166117
 H          1.9187880879       -0.5173871009       -0.8770646106
 H          1.3383783995        2.1666507000        0.0339711259
  10
    -0.430783 !GC
 C          0.0000000000        0.0000000000        0.0000000000
 C          1.5196599375        0.0000000000        0.0000000000
 C          2.1249679860        1.3624772434        0.0000000000
 O          3.1402389452        1.6960022050        0.5598939955
 H         -0.3749818208       -1.0165185887       -0.0732901219
 H         -0.3683586354        0.5614717539       -0.8555505016
 H         -0.3861527147        0.4650280047        0.9036696983
 H          1.9435086233       -0.5667385030        0.8306822686
 H          1.9008577383       -0.4789666268       -0.9080411589
 H          1.5552843542        2.0996449010       -0.5991284999
  10
    -0.430197 !GC
 C          0.0000000000        0.0000000000        0.0000000000
 C          1.5197979628        0.0000000000        0.0000000000
 C          2.1259855625        1.3621014736        0.0000000000
 O          3.1505712815        1.6911302861       -0.5456046449
 H         -0.3680871176        0.5598707210        0.8566010943
 H         -0.3757397478       -1.0165004150        0.0710102452
 H         -0.3854479493        0.4671152720       -0.9028297723
 H          1.8999639115       -0.4797561046        0.9078737757
 H          1.9429102143       -0.5663021992       -0.8312691977
 H          1.5472188718        2.1037434704        0.5846620232
  10
    -0.422910 !GC
 C          0.0000000000        0.0000000000        0.0000000000
 C          1.5197705848        0.0000000000        0.0000000000
 C          2.1258135536        1.3621239896        0.0000000000
 O          3.1397109908        1.6954285510        0.5624139275
 H         -0.3685616407       -1.0191622355       -0.0912423119
 H         -0.3800089810        0.5558223654       -0.8555097039
 H         -0.3809836972        0.4400136928        0.9152010708
 H          1.9436808535       -0.5682314015        0.8294796040
 H          1.9003788223       -0.4777032872       -0.9089624754
 H          1.5576662366        2.0995036571       -0.6000162851
  10
    -0.401270 !GC
 C          0.0000000000        0.0000000000        0.0000000000
 C          1.5198462842        0.0000000000        0.0000000000
 C          2.0556620615        1.3900024448        0.0000000000
 O          1.5503539241        2.3574507480        0.5142733430
 H         -0.3696505463       -0.4872937433       -0.8981787733
 H         -0.3673154388        1.0244185867        0.0145745651
 H         -0.3629702676       -0.5283874205        0.8766542159
 H          1.8762404172       -0.4695848949        0.9222825350
 H          1.9164573541       -0.5502214615       -0.8547188371
 H          2.9962718557        1.4909995870       -0.5728521155
  10
    -0.303896 !GC
 C          0.0000000000        0.0000000000        0.0000000000
 C          1.5198363171        0.0000000000        0.0000000000
 C          2.1245168186        1.3626856142        0.0000000000
 O          3.1479663536        1.6930336308       -0.5469099264
 H         -0.3729264065       -1.0183655402        0.0579702820
 H         -0.3703873072        0.4465237329       -0.9199590455
 H         -0.3861299336        0.5733704617        0.8392581099
 H          1.9003840841       -0.4789419862        0.9082215024
 H          1.9434212775       -0.5663525246       -0.8310398505
 H          1.5451906280        2.1035910618        0.5850492641
  10
    -0.298023 !GC
 C          0.0000000000        0.0000000000        0.0000000000
 C          1.5196215831        0.0000000000        0.0000000000
 C          2.1264365355        1.3618924093        0.0000000000
 O          3.1412559965        1.6948155835        0.5610971213
 H         -0.3701498266        0.4448041227        0.9206718825
 H         -0.3737182780       -1.0179427046       -0.0602795078
 H         -0.3854707943        0.5752054757       -0.8379731835
 H          1.9430932170       -0.5675021476        0.8302682561
 H          1.9003385126       -0.4788783724       -0.9082474318
 H          1.5578091700        2.0995631557       -0.5995051295
  10
    -0.249727 !GC
 C          0.0000000000        0.0000000000        0.0000000000
 C          1.5193618080        0.0000000000        0.0000000000
 C          2.0596440694        1.3885172298        0.0000000000
 O          1.5894184699        2.3443501937       -0.5668764908
 H         -0.3699369617        1.0097455837        0.1555432020
 H         -0.3554454105       -0.6252176015        0.8151844385
 H         -0.3751356141       -0.3861406473       -0.9440835667
 H          1.9192447107       -0.5599478929        0.8465352450
 H          1.8741857455       -0.4610281085       -0.9276341199
 H          2.9890270100        1.4918326904        0.5911536510
  10
    -0.201570 !GC
 C          0.0000000000        0.0000000000        0.0000000000
 C          1.5195697290        0.0000000000        0.0000000000
 C          2.0573616139        1.3893527262        0.0000000000
 O          1.5422035721        2.3614731835        0.4952945869
 H         -0.3600526553       -0.5401860711        0.8699326231
 H         -0.3652086823       -0.5038468776       -0.8929153221
 H         -0.3749915173        1.0200711906        0.0198912511
 H          1.8766460074       -0.4702453804        0.9218461768
 H          1.9168510832       -0.5505588131       -0.8543126279
 H          3.0098989567        1.4849931608       -0.5538023251
  10
    -0.194999 !GC
 C          0.0000000000        0.0000000000        0.0000000000
 C          1.5194814131        0.0000000000        0.0000000000
 C          2.0575091333        1.3892289446        0.0000000000
 O          1.5948227053        2.3412360751       -0.5790779595
 H         -0.3594701905       -0.6432820055        0.7969812212
 H         -0.3672464545       -0.3858753501       -0.9491650496
 H         -0.3732010155        1.0098440033        0.1501170277
 H          1.9194890073       -0.5600212919        0.8464076109
 H          1.8737456356       -0.4599503493       -0.9283916836
 H          2.9774064451        1.4973602848        0.6041542727
  10
    -0.162630 !GC
 C          0.0000000000        0.0000000000        0.0000000000
 C          1.5161037052        0.0000000000        0.0000000000
 C          2.0748058872        1.3825995704        0.0000000000
 O          1.4424315461        2.4079927010       -0.0799168822
 H         -0.3625700727       -0.5939818774        0.8333562619
 H         -0.3671302966       -0.4441912323       -0.9233304668
 H         -0.3752861564        1.0164574599        0.0878106579
 H          1.9039031022       -0.5295434901        0.8742578185
 H          1.8980392582       -0.5130395117       -0.8873494013
 H          3.1779858781        1.4155632126        0.0678271504
  10
    -0.142860 !GC
 C          0.0000000000        0.0000000000        0.0000000000
 C          1.5225091373        0.0000000000        0.0000000000
 C          2.1124930204        1.3687630663        0.0000000000
 O          2.0709436400        2.1594839583       -0.9114151714
 H         -0.3636731367        0.3837155983        0.9487996160
 H         -0.3873687789       -1.0097702007       -0.1221924224
 H         -0.3810877953        0.6258442925       -0.8011837093
 H          1.9580083567       -0.6053841714        0.7938125683
 H          1.8723211743       -0.4274482322       -0.9475749715
 H          2.5975902174        1.6504498309        0.9536536035
  10
    -0.135872 !GC
 C          0.0000000000        0.0000000000        0.0000000000
 C          1.5222801466        0.0000000000        0.0000000000
 C          2.1145362389        1.3680088261        0.0000000000
 O          2.0629162327        2.1635229033       -0.9069789972
 H         -0.3758521096        0.3831562297        0.9454011692
 H         -0.3637735859       -1.0169691253       -0.1126265178
 H         -0.3928252441        0.6074403082       -0.8106543047
 H          1.9575877897       -0.6052307217        0.7940996958
 H          1.8727443193       -0.4288422132       -0.9467024389
 H          2.6119919449        1.6438956586        0.9496634385
  10
    -0.050189 !GC
 C          0.0000000000        0.0000000000        0.0000000000
 C          1.5167032446        0.0000000000        0.0000000000
 C          2.0717556838        1.3829538330        0.0000000000
 O          3.2335998490        1.7008497974        0.0504778802
 H         -0.3642243461        1.0200715403        0.0898274727
 H         -0.3654297670       -0.5808044307        0.8433006007
 H         -0.3677204683       -0.4263517672       -0.9302277150
 H          1.9044786596       -0.5189500235        0.8801924282
 H          1.9016681886       -0.5094083849       -0.8873953081
 H          1.2817749451        2.1577481098       -0.0312722103
  10
    -0.031592 !GC
 C          0.0000000000        0.0000000000        0.0000000000
 C          1.5263981947        0.0000000000        0.0000000000
 C          2.0915767112        1.3775903654        0.0000000000
 O          1.6421488264        2.3376871326        0.5763831984
 H         -0.3843479251       -1.0163531655        0.0559752807
 H         -0.3639393506        0.4479741315       -0.9199920819
 H         -0.3782892852        0.5710991982        0.8422532536
 H          1.8876202016       -0.4622547383        0.9237688276
 H          1.9334752307       -0.5577795421       -0.8437432885
 H          3.0014817884        1.4783998796       -0.6223400818
  10
    -0.029566 !GC
 C          0.0000000000        0.0000000000        0.0000000000
 C          1.5265043001        0.0000000000        0.0000000000
 C          2.0918850866        1.3774623583        0.0000000000
 O          1.6375329065        2.3395304928        0.5692298099
 H         -0.3736846711       -1.0192808703        0.0596124332
 H         -0.3849611304        0.4475960219       -0.9141033349
 H         -0.3682898076        0.5593268766        0.8533324262
 H          1.8887539587       -0.4641279461        0.9223061412
 H          1.9323688894       -0.5559933921       -0.8456869688
 H          3.0102990065        1.4747887579       -0.6097829174
  10
    -0.028981 !GC
 C          0.0000000000        0.0000000000        0.0000000000
 C          1.5167428606        0.0000000000        0.0000000000
 C          2.0710592539        1.3831992732        0.0000000000
 O          3.2326015119        1.7015251639        0.0544348959
 H         -0.3643566802       -0.4157823237       -0.9357963836
 H         -0.3598272182        1.0250473928        0.0714634961
 H         -0.3731068134       -0.5817448519        0.8375617375
 H          1.9048930502       -0.5196373015        0.8795990021
 H          1.9016890906       -0.5085268698       -0.8879688338
 H          1.2809776706        2.1577157332       -0.0348962946
  10
    -0.026882 !GC
 C          0.0000000000        0.0000000000        0.0000000000
 C          1.5262215627        0.0000000000        0.0000000000
 C          2.0939307304        1.3766009945        0.0000000000
 O          1.6250437157        2.3457640602        0.5445971650
 H         -0.3633268503       -1.0221143222        0.0485174158
 H         -0.3746323303        0.4424491464       -0.9200572830
 H         -0.3890933511        0.5574139333        0.8476620218
 H          1.8885509367       -0.4654651668        0.9216578869
 H          1.9330510095       -0.5558841963       -0.8452732445
 H          3.0280182606        1.4663416977       -0.5869800730
  10
    -0.024057 !GC
 C          0.0000000000        0.0000000000        0.0000000000
 C          1.5263313269        0.0000000000        0.0000000000
 C          2.0920983785        1.3773572190        0.0000000000
 O          1.6116343832        2.3502363867       -0.5275712635
 H         -0.3846891183        0.4442512843        0.9157292575
 H         -0.3737670666       -1.0189774084       -0.0630176481
 H         -0.3684709746        0.5618254855       -0.8514024770
 H          1.9312812723       -0.5528465915        0.8483081708
 H          1.8906397010       -0.4681660620       -0.9193821901
 H          3.0433397258        1.4611078949        0.5596969857
  10
    -0.022573 !GC
 C          0.0000000000        0.0000000000        0.0000000000
 C          1.5260136417        0.0000000000        0.0000000000
 C          2.0961931550        1.3757118338        0.0000000000
 O          1.6142147365        2.3514515805       -0.5212503322
 H         -0.3732073503        0.4443020357        0.9191313237
 H         -0.3648967952       -1.0220249012       -0.0464870107
 H         -0.3892336262        0.5569817891       -0.8476255355
 H          1.9310258121       -0.5551252136        0.8466603662
 H          1.8906102082       -0.4676665360       -0.9195161640
 H          3.0501479880        1.4559202554        0.5562137601
  10
    -0.018849 !GC
 C          0.0000000000        0.0000000000        0.0000000000
 C          1.5196611992        0.0000000000        0.0000000000
 C          2.1257494509        1.3621654300        0.0000000000
 O          3.1383062814        1.6963113477        0.5644366598
 H         -0.3702821526        0.5897530453       -0.8352557291
 H         -0.3681528246        0.4674413886        0.9103521751
 H         -0.3907932749       -1.0104840329       -0.0684055607
 H          1.9435009934       -0.5681292406        0.8296274072
 H          1.9003590726       -0.4779735854       -0.9087905790
 H          1.5588697865        2.0988482255       -0.6023422722
  10
    -0.017061 !GC
 C          0.0000000000        0.0000000000        0.0000000000
 C          1.5198375788        0.0000000000        0.0000000000
 C          2.1252983879        1.3623741599        0.0000000000
 O          3.1517858701        1.6907798970       -0.5423841975
 H         -0.3682194807        0.4779456358       -0.9048549705
 H         -0.3701815223        0.5801584354        0.8421107047
 H         -0.3907711831       -1.0112975041        0.0572005067
 H          1.9003803266       -0.4804754845        0.9073133975
 H          1.9429334597       -0.5654824635       -0.8318992620
 H          1.5444366556        2.1047308793        0.5816427268
  10
    -0.016459 !GC
 C          0.0000000000        0.0000000000        0.0000000000
 C          1.5199366189        0.0000000000        0.0000000000
 C          2.1233012490        1.3632232308        0.0000000000
 O          3.1497223745        1.6933972277        0.5412830106
 H         -0.3845515978        0.5657392323       -0.8449574535
 H         -0.3704613158        0.4558691604        0.9153558667
 H         -0.3741662391       -1.0185901854       -0.0485922520
 H          1.9431124337       -0.5661820119        0.8312229858
 H          1.9004590490       -0.4785860799       -0.9084095212
 H          1.5401984350        2.1045529558       -0.5807469844
  10
    -0.015269 !GC
 C          0.0000000000        0.0000000000        0.0000000000
 C          1.5201063117        0.0000000000        0.0000000000
 C          2.1225282733        1.3635922062        0.0000000000
 O          3.1595644771        1.6901943848       -0.5225949951
 H         -0.3698632255        0.4638912995       -0.9114235506
 H         -0.3855242220        0.5579373113        0.8499310163
 H         -0.3733394083       -1.0193415301        0.0393287754
 H          1.9005525116       -0.4796731117        0.9077282488
 H          1.9421157296       -0.5648472772       -0.8328713163
 H          1.5271098423        2.1094606265        0.5614932426
  10
    -0.007835 !GC
 C          0.0000000000        0.0000000000        0.0000000000
 C          1.5223997516        0.0000000000        0.0000000000
 C          2.1124284261        1.3688050340        0.0000000000
 O          2.0732340718        2.1587759565       -0.9122376541
 H         -0.3653945582       -1.0125250361       -0.1439163768
 H         -0.3755388984        0.6099177000       -0.8180035778
 H         -0.3909079927        0.3872840102        0.9370867762
 H          1.9578294452       -0.6052910969        0.7939652935
 H          1.8723023196       -0.4277330667       -0.9474204506
 H          2.5951942653        1.6513461385        0.9547564506
  10
    -0.000883 !GC
 C          0.0000000000        0.0000000000        0.0000000000
 C          1.5234027689        0.0000000000        0.0000000000
 C          2.1060947772        1.3706528081        0.0000000000
 O          3.2761674300        1.6600999586       -0.0264942301
 H         -0.3820447552        0.5112754749       -0.8797726301
 H         -0.3685434507        0.5149899182        0.8841962395
 H         -0.3738718693       -1.0195856481        0.0193829352
 H          1.9163875331       -0.5110509577        0.8821892963
 H          1.9193039469       -0.5174606628       -0.8768491449
 H          1.3360494924        2.1663716195        0.0344435534
  10
    -0.000795 !GC
 C          0.0000000000        0.0000000000        0.0000000000
 C          1.5227660106        0.0000000000        0.0000000000
 C          2.1113962516        1.3693596093        0.0000000000
 O          1.4947634262        2.4073904084       -0.0091725459
 H         -0.3708612789        0.4836997325        0.9021209315
 H         -0.3754013548       -1.0201872278        0.0143735948
 H         -0.3853781269        0.5260038336       -0.8660804745
 H          1.9153903810       -0.5239319825        0.8749864317
 H          1.9146850827       -0.5200755122       -0.8778099536
 H          3.2178999173        1.3838678888        0.0072244727
  10
    -0.000477 !GC
 C          0.0000000000        0.0000000000        0.0000000000
 C          1.5228043650        0.0000000000        0.0000000000
 C          2.1099206214        1.3699244504        0.0000000000
 O          1.4920337885        2.4072069112       -0.0076356893
 H         -0.3756989427       -1.0198229419       -0.0304653917
 H         -0.3700404798        0.4976432840       -0.8948400181
 H         -0.3860583163        0.5130986087        0.8736793717
 H          1.9158088122       -0.5231408441        0.8753699226
 H          1.9152018173       -0.5201499229       -0.8775953249
 H          3.2164149874        1.3856264349        0.0067562396
  10
    -0.000379 !GC
 C          0.0000000000        0.0000000000        0.0000000000
 C          1.5226553633        0.0000000000        0.0000000000
 C          2.1105463366        1.3697036512        0.0000000000
 O          1.4936237046        2.4076353503       -0.0061965144
 H         -0.3772809831        0.4972474168        0.8900361699
 H         -0.3637544212       -1.0233132501        0.0097016983
 H         -0.3905490332        0.5027361221       -0.8807085569
 H          1.9152131616       -0.5223439580        0.8761081187
 H          1.9151600987       -0.5212786146       -0.8768246706
 H          3.2172235895        1.3843398288        0.0058804879
  10
    -0.000198 !GC
 C          0.0000000000        0.0000000000        0.0000000000
 C          1.5227263946        0.0000000000        0.0000000000
 C          2.1120865421        1.3690958961        0.0000000000
 O          1.4961893384        2.4075972092       -0.0051546053
 H         -0.3707288137       -1.0235309801       -0.0140977927
 H         -0.3809382652        0.5046364056       -0.8825368965
 H         -0.3800462474        0.4794927655        0.8967220404
 H          1.9149767248       -0.5232504027        0.8755845347
 H          1.9146637615       -0.5209457795       -0.8772249155
 H          3.2186326899        1.3827606999        0.0036353863
  10
    -0.000026 !GC
 C          0.0000000000        0.0000000000        0.0000000000
 C          1.5260229779        0.0000000000        0.0000000000
 C          2.0955889389        1.3759678790        0.0000000000
 O          1.6036334301        2.3553144339       -0.5050077508
 H         -0.3829216221       -1.0160257238       -0.0706379411
 H         -0.3639584805        0.5546025701       -0.8597261618
 H         -0.3805760386        0.4617153461        0.9056295983
 H          1.9306983077       -0.5529464011        0.8484507089
 H          1.8914648964       -0.4698851921       -0.9180062246
 H          3.0613204809        1.4518917700        0.5361419994
  10
    -0.000015 !GC
 C          0.0000000000        0.0000000000        0.0000000000
 C          1.5263888584        0.0000000000        0.0000000000
 C          2.0921816572        1.3773362767        0.0000000000
 O          1.6329171336        2.3419776772        0.5607426520
 H         -0.3746374525        0.5546300089        0.8564030622
 H         -0.3648777860       -1.0204292202        0.0759826325
 H         -0.3869538024        0.4480170790       -0.9111596430
 H          1.8879621593       -0.4646790958        0.9222248715
 H          1.9326383977       -0.5558033227       -0.8454900824
 H          3.0153729339        1.4721210945       -0.6034215457
  10
    -0.000002 !GC
 C          0.0000000000        0.0000000000        0.0000000000
 C          1.5265074542        0.0000000000        0.0000000000
 C          2.0916418551        1.3775473701        0.0000000000
 O          1.6434368578        2.3368724986        0.5785085762
 H         -0.3826371833        0.5587051577        0.8517941036
 H         -0.3757911248       -1.0178784424        0.0684297744
 H         -0.3684464898        0.4521737823       -0.9145001167
 H          1.8878041752       -0.4623821273        0.9236381827
 H          1.9334961913       -0.5575328854       -0.8439404075
 H          2.9998881550        1.4791980947       -0.6243577774
