  10
        -13.52395835
 C          1.4780430086        0.5708931661        0.0000336830
 C          0.6729092876       -0.7216118458       -0.0000586300
 C         -0.8006290305       -0.4971122861        0.0000697345
 O         -1.3561072434        0.5749198085       -0.0000356676
 H          2.5424023276        0.3566286749       -0.0011081679
 H          1.2376017684        1.1630670940        0.8795385483
 H          1.2359359935        1.1642836887       -0.8782052829
 H          0.9083652853       -1.3304590212       -0.8766530161
 H          0.9085855377       -1.3308185194        0.8762265732
 H         -1.3975190645       -1.4289831638        0.0002338175
