  10
  -13.5239583500000       0.113489425491653      !
 C          1.4780430086        0.5708931661        0.0000336830
 C          0.6729092876       -0.7216118458       -0.0000586300
 C         -0.8006290305       -0.4971122861        0.0000697345
 O         -1.3561072434        0.5749198085       -0.0000356676
 H          2.5424023276        0.3566286749       -0.0011081679
 H          1.2376017684        1.1630670940        0.8795385483
 H          1.2359359935        1.1642836887       -0.8782052829
 H          0.9083652853       -1.3304590212       -0.8766530161
 H          0.9085855377       -1.3308185194        0.8762265732
 H         -1.3975190645       -1.4289831638        0.0002338175
  10
  -13.5239582800000       0.113481019228433      !
 C          1.4779342515        0.5709348748        0.0000009220
 C          0.6729801371       -0.7217590410       -0.0000406050
 C         -0.8005814892       -0.4970302110        0.0000119507
 O         -1.3561707977        0.5749723840       -0.0000283833
 H          1.2388770159        1.1629249022       -0.8800761300
 H          2.5421780757        0.3563241473        0.0026128548
 H          1.2352752109        1.1646901622        0.8778947514
 H          0.9087051022       -1.3310725619       -0.8762922591
 H          0.9086339961       -1.3307918881        0.8764064645
 H         -1.3974035274       -1.4289115855        0.0002353181
  10
  -13.5239582100000       0.113472613587658      !
 C          1.4788522826        0.5707305167       -0.0001722225
 C          0.6729204683       -0.7212922608        0.0003319543
 C         -0.8008083637       -0.4970526506       -0.0004298898
 O         -1.3568094937        0.5747640342        0.0002286124
 H          1.2356918844        1.1650743778        0.8770821723
 H          1.2399068773        1.1620710417       -0.8806132780
 H          2.5431773836        0.3563835807        0.0028229155
 H          0.9092553385       -1.3314758448       -0.8750525855
 H          0.9081723307       -1.3292932640        0.8776053480
 H         -1.3973245702       -1.4291491620       -0.0022541852
  10
  -13.5238323700000       9.932509706797567E-002 !
 C          1.8272119027        0.3001584148        0.1312494887
 C          0.5813344025       -0.4808176568       -0.2754732373
 C         -0.6622931525        0.0717962501        0.3314509286
 O         -1.7525680217        0.0865773046       -0.1893598262
 H          1.9241869201        0.3291480606        1.2133734651
 H          1.7750158744        1.3205425794       -0.2393968258
 H          2.7128156738       -0.1715606671       -0.2835588506
 H          0.4683323098       -0.5264751031       -1.3595387940
 H          0.6624744281       -1.5083996132        0.0931043226
 H         -0.5322345561        0.4796958605        1.3507728606
  10
  -13.5238276400000       9.882919107872568E-002 !
 C          1.8215670565        0.3048114395       -0.1334579889
 C          0.5822372732       -0.4838645178        0.2802464394
 C         -0.6627416421        0.0536356300       -0.3372387277
 O         -1.7475394199        0.1014195213        0.1926741182
 H          1.9200185991        0.3226252361       -1.2157083981
 H          2.7108726915       -0.1534816700        0.2883476903
 H          1.7583802656        1.3287571725        0.2255741466
 H          0.6744582785       -1.5140990299       -0.0777310817
 H          0.4672336263       -0.5167607514        1.3644790123
 H         -0.5383434413        0.4175791074       -1.3739197024
  10
  -13.5238238000000       9.842841662301535E-002 !
 C          1.8247260916        0.3022940415        0.1325672833
 C          0.5817597240       -0.4817389617       -0.2781995256
 C         -0.6627845413        0.0621348111        0.3347611670
 O         -1.7501326623        0.0942126963       -0.1912304644
 H          1.7665715805        1.3253084241       -0.2298894264
 H          2.7118155620       -0.1616019379       -0.2878927971
 H          1.9237810165        0.3233519584        1.2146810362
 H          0.4678492274       -0.5193618210       -1.3624105300
 H          0.6682807439       -1.5113309151        0.0834176086
 H         -0.5359563419        0.4460429024        1.3638821928
  10
  -13.5238211600000       9.815382734383397E-002 !
 C          1.8245765946        0.3023189782       -0.1326725090
 C          0.5818370304       -0.4818359184        0.2783892519
 C         -0.6629333877        0.0609702260       -0.3351527380
 O         -1.7499718227        0.0948608236        0.1913766859
 H          1.7666378520        1.3249420523        0.2305611135
 H          1.9219180369        0.3241616114       -1.2148805282
 H          2.7122506790       -0.1617286857        0.2861200907
 H          0.6686425569       -1.5116431504       -0.0825427160
 H          0.4677150219       -0.5188111072        1.3625685326
 H         -0.5347415207        0.4499354608       -1.3622765161
  10
  -13.5238211400000       9.815175004835316E-002 !
 C          1.8275557505        0.3000044478        0.1315002659
 C          0.5813353271       -0.4802956711       -0.2758775526
 C         -0.6626239173        0.0706951284        0.3320244397
 O         -1.7526066507        0.0870695355       -0.1896255460
 H          2.7136043908       -0.1702449181       -0.2842202205
 H          1.9246001914        0.3275538002        1.2135505167
 H          1.7750850449        1.3210920531       -0.2372665179
 H          0.4682641313       -0.5235382155       -1.3599770939
 H          0.6620973086       -1.5090410726        0.0900191261
 H         -0.5326141619        0.4780518500        1.3518637877
  10
  -13.5238211000000       9.814759558909575E-002 !
 C          1.8275348439        0.3002159165       -0.1314166826
 C          0.5814218987       -0.4801639694        0.2759106631
 C         -0.6626620684        0.0706017602       -0.3320591041
 O         -1.7525733894        0.0874471269        0.1896891178
 H          2.7127547938       -0.1710545126        0.2847027439
 H          1.7754782938        1.3210099733        0.2381560848
 H          1.9252983313        0.3281715523       -1.2135097943
 H          0.6623699878       -1.5088638230       -0.0897443163
 H          0.4687955438       -0.5234155047        1.3599934567
 H         -0.5345158739        0.4690554971       -1.3555543417
  10
  -13.5234815300000       6.852106394125596E-002 !
 C          1.8637349577        0.2866811970       -0.0050143877
 C          0.5745188783       -0.5222240740        0.0111758962
 C         -0.6547064987        0.3222884833       -0.0130914917
 O         -1.7884532297       -0.0975596872        0.0077754153
 H          2.7222034306       -0.3782441171        0.0127190589
 H          1.9171434377        0.9394868293        0.8623687742
 H          1.9209112026        0.8976297890       -0.9021171626
 H          0.5267672658       -1.1976013621       -0.8474521034
 H          0.5225547393       -1.1581088139        0.8989531362
 H         -0.4737723725        1.4117671204       -0.0653151961
