  11
    -0.339276 !GC
 C          0.0000000000        0.0000000000        0.0000000000
 C          1.5140709236        0.0000000000        0.0000000000
 C          2.0244742692        1.4278443526        0.0000000000
 Br         3.9956817281        1.4983189120        0.0477260991
 H         -0.3733834849       -0.5119308576        0.8865628556
 H         -0.3575680572        1.0235061270        0.0069615920
 H         -0.3751870041       -0.5106074109       -0.8857072680
 H          1.8761112816       -0.5266749869       -0.8861758668
 H          1.8762812550       -0.5265125245        0.8863031208
 H          1.6881469776        1.9812357009        0.8751336334
 H          1.7407876890        1.9579622971       -0.9073661375
  11
    -0.283460 !GC
 C          0.0000000000        0.0000000000        0.0000000000
 C          1.5141289598        0.0000000000        0.0000000000
 C          2.0252667860        1.4276059785        0.0000000000
 Br         3.9965067662        1.4970490517        0.0462660856
 H         -0.3745180505       -0.5075171848       -0.8877052993
 H         -0.3635338047       -0.5152868067        0.8845617665
 H         -0.3682544776        1.0230079539        0.0035263795
 H          1.8757166891       -0.5267155800       -0.8863461709
 H          1.8763143594       -0.5270756966        0.8860037232
 H          1.6897245505        1.9809455553        0.8754940206
 H          1.7411448387        1.9581227554       -0.9071517824
  11
    -0.265476 !GC
 C          0.0000000000        0.0000000000        0.0000000000
 C          1.5140207096        0.0000000000        0.0000000000
 C          2.0244074635        1.4278441202        0.0000000000
 Br         3.9956939602        1.4983295686        0.0455867614
 H         -0.3671179523        1.0235480641        0.0058965665
 H         -0.3650298390       -0.5055779597       -0.8889306976
 H         -0.3743193209       -0.5096336520        0.8868863932
 H          1.8756576762       -0.5261945987       -0.8866339236
 H          1.8763956411       -0.5270387030        0.8859684587
 H          1.6885526385        1.9806304267        0.8756420780
 H          1.7393834561        1.9581932157       -0.9069111064
  11
    -0.054109 !GC
 C          0.0000000000        0.0000000000        0.0000000000
 C          1.5252854133        0.0000000000        0.0000000000
 C          2.0464430084        1.4240412183        0.0000000000
 Br         4.0195366062        1.4700829694        0.0000338862
 H         -0.3846260251       -1.0162828896        0.0051300102
 H         -0.3624501961        0.5116535944        0.8845908417
 H         -0.3891265394        0.5168310972       -0.8763213342
 H          1.8955556698       -0.5246382166       -0.8831994502
 H          1.8970405640       -0.5248227422        0.8824540339
 H          1.7404005718        1.9686896644        0.8917530177
 H          1.7403436352        1.9686812186       -0.8915844263
  11
    -0.054086 !GC
 C          0.0000000000        0.0000000000        0.0000000000
 C          1.5253033288        0.0000000000        0.0000000000
 C          2.0459813789        1.4240757105        0.0000000000
 Br         4.0192151077        1.4704408455       -0.0192836042
 H         -0.3966522835        0.5112784858        0.8746510425
 H         -0.3566680025        0.5091785677       -0.8882033573
 H         -0.3827562943       -1.0172093435       -0.0090869523
 H          1.8957594366       -0.5244365138       -0.8832929354
 H          1.8973929599       -0.5246768560        0.8822144813
 H          1.7489271274        1.9660395469        0.8964027923
 H          1.7310198623        1.9716632643       -0.8867199440
