  11
  -14.0794469200000       0.118284627973727      !
 C         -3.2100349221       -0.0464230791        0.0000120153
 C         -1.7879382488        0.5048128010       -0.0000150509
 C         -0.7877763933       -0.6349468180       -0.0000121785
 Br         1.0678064380        0.0365167606        0.0000017444
 H         -3.3840661308       -0.6567717465        0.8826829489
 H         -3.9235458127        0.7721416122        0.0000339750
 H         -3.3841091469       -0.6567846610       -0.8826527840
 H         -1.6315603477        1.1281871796        0.8827828021
 H         -1.6315677508        1.1282187813       -0.8827958509
 H         -0.8754357903       -1.2529820753       -0.8919771017
 H         -0.8753915529       -1.2529656428        0.8919690156
  11
  -14.0794468900000       0.118280872987747      !
 C         -3.2100378032       -0.0464048064       -0.0000011067
 C         -1.7879048550        0.5047622751        0.0000245088
 C         -0.7877568718       -0.6350228705        0.0000228007
 Br         1.0678018568        0.0365355262       -0.0000054985
 H         -3.9235837284        0.7721905161       -0.0000182579
 H         -3.3839521080       -0.6566845045       -0.8827930930
 H         -3.3841360996       -0.6569126667        0.8826199599
 H         -1.6316473029        1.1281244367        0.8828432416
 H         -1.6315346843        1.1282325064       -0.8827320202
 H         -0.8754473610       -1.2529884740       -0.8919690629
 H         -0.8756082891       -1.2531154097        0.8919345647
  11
  -14.0794468700000       0.118278369730059      !
 C         -3.2100580667       -0.0464069856       -0.0000054699
 C         -1.7879329802        0.5047768671        0.0000315866
 C         -0.7877619161       -0.6349763759        0.0000288854
 Br         1.0678085199        0.0365243094       -0.0000085851
 H         -3.3840966221       -0.6566997179       -0.8827176125
 H         -3.3841718994       -0.6568407015        0.8826042053
 H         -3.9235476157        0.7721894523        0.0000239326
 H         -1.6315590223        1.1281207663        0.8828482311
 H         -1.6315569550        1.1282438752       -0.8827042645
 H         -0.8754293838       -1.2529198388       -0.8919983639
 H         -0.8754395749       -1.2530601799        0.8919690367
  11
  -14.0793573300000       0.107585958891825      !
 C         -2.4845959796        0.2167537377        0.3928700974
 C         -1.7730872942        0.0402209224       -0.9422761990
 C         -0.5180071082       -0.8020537041       -0.8262750654
 Br         0.8781767738        0.0994805611        0.2438770559
 H         -2.7661964429       -0.7486161528        0.8076354861
 H         -1.8373394624        0.7231589983        1.1061942671
 H         -3.3829645634        0.8134294140        0.2640029887
 H         -1.5214462598        1.0173418110       -1.3596702337
 H         -2.4356147737       -0.4669588619       -1.6477212895
 H         -0.0581774312       -0.9849462223       -1.7954987946
 H         -0.7072088109       -1.7444107223       -0.3152878050
  11
  -14.0793569100000       0.107538153814966      !
 C         -2.4874432262        0.2162337011        0.3926008717
 C         -1.7736645425        0.0414376321       -0.9416299823
 C         -0.5184586893       -0.8007737387       -0.8257083407
 Br         0.8788764045        0.0991356224        0.2437099638
 H         -3.3857030981        0.8128283000        0.2634103812
 H         -2.7697707836       -0.7498021486        0.8056494328
 H         -1.8411801371        0.7218765980        1.1074372917
 H         -1.5221741226        1.0191417004       -1.3576479969
 H         -2.4351310097       -0.4650386576       -1.6485024687
 H         -0.0572033645       -0.9831439004       -1.7943543431
 H         -0.7070600202       -1.7430727968       -0.3143370378
  11
  -14.0793569100000       0.107538153814966      !
 C         -2.4867126626        0.2161733040        0.3927895568
 C         -1.7741454328        0.0416375778       -0.9420687962
 C         -0.5188835225       -0.8004157169       -0.8260926155
 Br         0.8789224627        0.0990684356        0.2438286319
 H         -1.8399813210        0.7214723918        1.1076702534
 H         -3.3851736065        0.8126687266        0.2639624893
 H         -2.7688890429       -0.7500026812        0.8054385999
 H         -1.5224863465        1.0192785221       -1.3582440068
 H         -2.4359963529       -0.4650258778       -1.6485014685
 H         -0.0590764964       -0.9834655459       -1.7953064460
 H         -0.7081833590       -1.7427393743       -0.3152118387
  11
  -14.0793566700000       0.107510846165983      !
 C         -2.4856298694        0.2162423128       -0.3927811159
 C         -1.7731807213        0.0412243557        0.9420851487
 C         -0.5184473896       -0.8015486023        0.8260734158
 Br         0.8784719234        0.0993118392       -0.2438207599
 H         -1.8387230668        0.7212379904       -1.1074046479
 H         -2.7681690581       -0.7495210480       -0.8059868247
 H         -3.3835907169        0.8135724530       -0.2640868229
 H         -2.4352999704       -0.4650383768        1.6485589625
 H         -1.5210345962        1.0187619467        1.3582147893
 H         -0.7081253997       -1.7437291889        0.3149314187
 H         -0.0587229581       -0.9847919307        1.7952748413
  11
  -14.0793566200000       0.107505157945460      !
 C         -2.4879853019        0.2158853705       -0.3928015759
 C         -1.7752793243        0.0424494073        0.9421087279
 C         -0.5196313178       -0.7990519486        0.8260932414
 Br         0.8795096058        0.0987427753       -0.2438363164
 H         -3.3867524134        0.8120450891       -0.2639672726
 H         -1.8417069092        0.7215681852       -1.1075521822
 H         -2.7692343472       -0.7504231588       -0.8057918069
 H         -2.4370187449       -0.4642000318        1.6486767220
 H         -1.5241871862        1.0203558582        1.3580027703
 H         -0.7091028043       -1.7414893754        0.3154089349
 H         -0.0607420153       -0.9823476186        1.7956843674
  11
  -14.0793563800000       0.107477858675267      !
 C         -2.4882406692        0.2153231024       -0.3926867523
 C         -1.7743021310        0.0431169692        0.9417121126
 C         -0.5198259952       -0.7999357789        0.8257410805
 Br         0.8794267850        0.0988548957       -0.2437785740
 H         -2.7704885499       -0.7514246179       -0.8037544701
 H         -3.3865466697        0.8120727872       -0.2638294617
 H         -1.8427442524        0.7195566917       -1.1091416245
 H         -2.4356091657       -0.4612860272        1.6503241675
 H         -1.5212520296        1.0215197950        1.3551521311
 H         -0.7120392584       -1.7442762227        0.3194319730
 H         -0.0597805168       -0.9802645682        1.7952555959
