  11
        -14.07944692
 C         -3.2100349221       -0.0464230791        0.0000120153
 C         -1.7879382488        0.5048128010       -0.0000150509
 C         -0.7877763933       -0.6349468180       -0.0000121785
 Br         1.0678064380        0.0365167606        0.0000017444
 H         -3.3840661308       -0.6567717465        0.8826829489
 H         -3.9235458127        0.7721416122        0.0000339750
 H         -3.3841091469       -0.6567846610       -0.8826527840
 H         -1.6315603477        1.1281871796        0.8827828021
 H         -1.6315677508        1.1282187813       -0.8827958509
 H         -0.8754357903       -1.2529820753       -0.8919771017
 H         -0.8753915529       -1.2529656428        0.8919690156
