  15
        -17.72316692
 C          2.3792924957        0.4069789278        0.0000563804
 C          1.1835373177       -0.5312382827       -0.0001901349
 O          0.0000018814        0.2429163550        0.0000822081
 C         -1.1835420342       -0.5312202412        0.0001694198
 C         -2.3792968886        0.4069734113       -0.0001127729
 H          2.3487661744        1.0397020528        0.8822932165
 H          3.2989001443       -0.1694227131       -0.0004768894
 H          2.3483284280        1.0406978206       -0.8814584153
 H          1.1995203584       -1.1794387722        0.8902067880
 H          1.1994205086       -1.1788509859       -0.8910108970
 H         -1.1994181972       -1.1792281701       -0.8903707040
 H         -1.1994954730       -1.1790722796        0.8908431198
 H         -2.3486067219        1.0401602431        0.8817312330
 H         -2.3484642354        1.0402052113       -0.8819646600
 H         -3.2988723006       -0.1694230218       -0.0001788868
  15
        -17.72310726
 C          2.1043045679        0.3780041789       -0.4749588083
 C          1.2377392157       -0.5315042228        0.3935427775
 O         -0.0683254475       -0.0388481017        0.6251407808
 C         -0.9351889699       -0.0865720521       -0.4963946999
 C         -2.3382319262        0.2712228952       -0.0322663016
 H          3.1239261123        0.0055433072       -0.4758025148
 H          1.7423926496        0.4027044371       -1.4995658523
 H          2.0947791986        1.3880701132       -0.0735115904
 H          1.6727628521       -0.6169483104        1.3922537008
 H          1.1786757513       -1.5348410079       -0.0545896373
 H         -0.6011646364        0.6227393601       -1.2658904705
 H         -0.9174621679       -1.0991854873       -0.9277905871
 H         -2.6680096728       -0.4342809100        0.7250200697
 H         -2.3365599475        1.2672698438        0.4009056945
 H         -3.0225038953        0.2443820568       -0.8743656997
  15
        -17.72266601
 C          2.0542554921        0.4880634386       -0.3207685867
 C          1.0172217678       -0.0825677796        0.6444990770
 O          0.0000614889       -0.8350672364        0.0003386424
 C         -1.0174977952       -0.0836910885       -0.6444643318
 C         -2.0540351177        0.4885181447        0.3204120417
 H          2.4596838063       -0.3090696221       -0.9383976212
 H          1.6150958224        1.2422753473       -0.9689930146
 H          2.8593476908        0.9448109823        0.2464741733
 H          0.5767732983        0.7214997277        1.2458436047
 H          1.4940520967       -0.7988524023        1.3182196467
 H         -0.5774290043        0.7193914148       -1.2474182629
 H         -1.4946806217       -0.8011113733       -1.3167242088
 H         -2.8600557197        0.9430006191       -0.2473014461
 H         -2.4581031594       -0.3073775310        0.9405323584
 H         -1.6149970775        1.2448574304        0.9662239803
  15
        -17.72266243
 C          2.0602461449        0.4817317022        0.3203577654
 C          1.0171702800       -0.0788003511       -0.6443618923
 O         -0.0000370873       -0.8307851482        0.0003115882
 C         -1.0171052176       -0.0781377560        0.6444274068
 C         -2.0602745672        0.4814268109       -0.3207213130
 H          2.4668474155       -0.3213034973        0.9294767972
 H          2.8635020126        0.9415586961       -0.2470000979
 H          1.6256699446        1.2313326950        0.9770182054
 H          1.4884791029       -0.7925523202       -1.3246454426
 H          0.5771569310        0.7306962842       -1.2386946996
 H         -1.4884188006       -0.7911904215        1.3254017957
 H         -0.5769395779        0.7319006129        1.2379229248
 H         -2.8632031375        0.9422173688        0.2462884070
 H         -1.6256493636        1.2300036420       -0.9785087478
 H         -2.4672924357       -0.3223260071       -0.9286536951
  15
        -17.72266264
 C          2.0591550285        0.4829000903        0.3203404280
 C          1.0172051190       -0.0795753014       -0.6443685848
 O          0.0000197430       -0.8315143742        0.0003502482
 C         -1.0172025981       -0.0790642663        0.6444242007
 C         -2.0591707080        0.4826486430       -0.3207402986
 H          2.8623203210        0.9427978078       -0.2470483094
 H          1.6235511917        1.2328503087        0.9758244188
 H          2.4660557917       -0.3190807860        0.9306170402
 H          1.4895152255       -0.7938531627       -1.3233497038
 H          0.5771346025        0.7288416333       -1.2400690071
 H         -1.4895665664       -0.7928419210        1.3239250844
 H         -0.5771029941        0.7298007156        1.2395297269
 H         -1.6236193630        1.2321796798       -0.9768049303
 H         -2.4660505869       -0.3198536572       -0.9303734381
 H         -2.8623942107        0.9428643639        0.2462916826
  15
        -17.72266224
 C          1.9264099229        0.6093957049        0.3179217206
 C          1.0250088729       -0.1671395290       -0.6393668339
 O         -0.0000021037       -0.9127342456        0.0001929598
 C         -1.0251077347       -0.1670475784        0.6394695348
 C         -1.9263056951        0.6093120515       -0.3181957258
 H          1.3975652110        1.4454732195        0.7682508841
 H          2.2821805409       -0.0485765414        1.1067883134
 H          2.7783092783        0.9966324089       -0.2324166214
 H          1.6084156977       -0.9301791226       -1.1604013524
 H          0.5944109935        0.5106565752       -1.3868075755
 H         -1.6085560827       -0.9300026377        1.1605537571
 H         -0.5945820325        0.5109314564        1.3867836351
 H         -2.7782741718        0.9966865202        0.2319681279
 H         -1.3974328815        1.4452985351       -0.7687678844
 H         -2.2820671039       -0.0488105019       -1.1069729214
  15
        -17.72266154
 C          1.9395208200        0.5981977558        0.3187148018
 C          1.0238591556       -0.1592370113       -0.6406779253
 O         -0.0001376658       -0.9054257775       -0.0001650534
 C         -1.0240826226       -0.1596769137        0.6408164546
 C         -1.9391825303        0.5983246324       -0.3187259088
 H          1.4207853588        1.4311414850        0.7863128143
 H          2.2984207916       -0.0731216663        1.0948245350
 H          2.7887094607        0.9879298942       -0.2340528370
 H          1.5970440944       -0.9194740641       -1.1771019461
 H          0.5910046325        0.5313609767       -1.3749639022
 H         -1.5973328435       -0.9202756019        1.1766314016
 H         -0.5911729549        0.5302921232        1.3756639933
 H         -2.2986407218       -0.0727075908       -1.0950328692
 H         -2.7880828943        0.9878544539        0.2347098679
 H         -1.4199179458        1.4314663558       -0.7858894844
  15
        -17.72266074
 C          1.9516595958        0.5879734406       -0.3191256878
 C          1.0234750758       -0.1524832487        0.6413401937
 O         -0.0000361010       -0.8987191503        0.0001680037
 C         -1.0231997418       -0.1522218972       -0.6412654794
 C         -1.9519150843        0.5879540280        0.3189005732
 H          1.4404318581        1.4158450343       -0.8037797436
 H          2.7966736179        0.9824766306        0.2366301043
 H          2.3155476246       -0.0957756140       -1.0818885680
 H          0.5895883225        0.5491939966        1.3642134201
 H          1.5876598349       -0.9100939189        1.1906704525
 H         -0.5888427376        0.5496919912       -1.3635991234
 H         -1.5870854364       -0.9095574211       -1.1912847963
 H         -2.7960555180        0.9836754109       -0.2373633179
 H         -2.3170422750       -0.0962816334        1.0806345359
 H         -1.4405387271        1.4149331627        0.8048924399
  15
        -17.72266005
 C          1.9692729463        0.5725682095        0.3194284736
 C          1.0222493415       -0.1419553083       -0.6424538936
 O         -0.0000370626       -0.8885858124        0.0002467345
 C         -1.0221505465       -0.1413652290        0.6425355512
 C         -1.9693533773        0.5723159832       -0.3197532017
 H          2.8082632623        0.9742906161       -0.2402787556
 H          1.4701281672        1.3925068468        0.8296580550
 H          2.3401894838       -0.1295203893        1.0619174652
 H          1.5725905289       -0.8949828468       -1.2117720964
 H          0.5861775563        0.5762407744       -1.3474230612
 H         -1.5723331067       -0.8938002708        1.2128650516
 H         -0.5857997946        0.5775947853        1.3465601283
 H         -2.8075113475        0.9757542858        0.2399537259
 H         -1.4699111004        1.3908654327       -0.8317238006
 H         -2.3414241682       -0.1305979280       -1.0607767616
  15
        -17.72265999
 C          1.9842431376        0.5589007884        0.3197887300
 C          1.0211998082       -0.1323805022       -0.6431914707
 O         -0.0000053661       -0.8798418297        0.0002619723
 C         -1.0212280603       -0.1320270511        0.6432684612
 C         -1.9842205943        0.5587170209       -0.3201256241
 H          2.3612947646       -0.1593214103        1.0433713583
 H          2.8176551159        0.9682885182       -0.2426625806
 H          1.4954535279        1.3703955587        0.8528618823
 H          1.5593564122       -0.8805865023       -1.2302842031
 H          0.5835139826        0.6004831738       -1.3317482340
 H         -1.5593239541       -0.8798149781        1.2309670076
 H         -0.5835132280        0.6013519379        1.3312244810
 H         -2.3615881758       -0.1601760226       -1.0429270390
 H         -2.8173513700        0.9688998903        0.2422159266
 H         -1.4953438710        1.3695748172       -0.8540799395
  15
        -17.72265832
 C          1.9021373864        0.6290077426       -0.3170693479
 C          1.0271950225       -0.1806858687        0.6369491723
 O         -0.0000514779       -0.9258472122        0.0004176875
 C         -1.0267548101       -0.1804776699       -0.6369259248
 C         -1.9024960550        0.6290708798        0.3166181039
 H          2.2494834595       -0.0053981136       -1.1285483837
 H          1.3566738018        1.4709023292       -0.7359505643
 H          2.7605667964        1.0107255072        0.2269272575
 H          0.6010846979        0.4753452034        1.4061215277
 H          1.6282577917       -0.9475895689        1.1315475091
 H         -0.6004080761        0.4751031090       -1.4066225957
 H         -1.6280345344       -0.9475030462       -1.1310810625
 H         -2.7601898124        1.0118380305       -0.2280202448
 H         -2.2510719862       -0.0050747273        1.1279936912
 H         -1.3565166968        1.4702145237        0.7361028158
  15
        -17.72265199
 C          1.8887786454        0.6395542143        0.3159142025
 C          1.0278541573       -0.1879539011       -0.6357247538
 O          0.0001277133       -0.9325836348        0.0006222883
 C         -1.0280588504       -0.1875030861        0.6357578152
 C         -1.8886543763        0.6392517966       -0.3165421113
 H          1.3341720007        1.4837901536        0.7178560988
 H          2.2324983141        0.0184848723        1.1395993753
 H          2.7500618532        1.0188920518       -0.2255378358
 H          1.6384419345       -0.9571077457       -1.1149915870
 H          0.6037986345        0.4547488413       -1.4175332777
 H         -1.6392714201       -0.9561312544        1.1149792406
 H         -0.6047799433        0.4560991018        1.4172944791
 H         -1.3345373578        1.4842859746       -0.7168219978
 H         -2.2303040019        0.0182693454       -1.1410133660
 H         -2.7511489122        1.0174940032        0.2233793336
  15
        -17.72207428
 C          1.6616220695        0.8367612827        0.3562302507
 C          1.2620238233       -0.5606933583       -0.1103213912
 O         -0.0324740416       -0.6529592755       -0.6757711342
 C         -1.1275446626       -0.5203368544        0.2210307797
 C         -1.7632531743        0.8674152749        0.1914629019
 H          1.4894955163        1.5564024520       -0.4398435396
 H          1.0924451464        1.1330359806        1.2335006153
 H          2.7170252417        0.8375482392        0.6124717172
 H          1.3501048562       -1.2720822077        0.7243446785
 H          1.9233503104       -0.8855780361       -0.9174830397
 H         -1.8645522062       -1.2598623757       -0.1111346950
 H         -0.8109694742       -0.7795608943        1.2383566203
 H         -2.6621928591        0.8635149522        0.8010545846
 H         -1.0823881091        1.6233186122        0.5709143797
 H         -2.0282674638        1.1224376979       -0.8310229082
  15
        -17.72181474
 C          1.7052792885        0.8700550208       -0.2771274035
 C          1.2121632312       -0.5575481225       -0.0499056663
 O         -0.0009259511       -0.6569286630        0.6761801230
 C         -1.2074752449       -0.5560915779       -0.0610213936
 C         -1.7089998662        0.8711122749       -0.2715354460
 H          2.7288054730        0.8386744692       -0.6392596916
 H          1.0949930098        1.3911072372       -1.0086623134
 H          1.6775132164        1.4201955332        0.6595643103
 H          1.9373568274       -1.0948625079        0.5686761271
 H          1.1130907088       -1.0836160102       -1.0096017883
 H         -1.0948020911       -1.0669051096       -1.0272454727
 H         -1.9355053709       -1.1076710107        0.5415906572
 H         -2.7285549463        0.8384319347       -0.6442266439
 H         -1.6943697957        1.4063566784        0.6738682920
 H         -1.0953568276        1.4082632431       -0.9882051014
  15
        -17.72001076
 C          2.3839010428        0.4111616270       -0.0001769226
 C          1.1833891139       -0.5360408455        0.0004212726
 O         -0.0005841324        0.2404403338       -0.0001077106
 C         -1.1851173972       -0.5317915416       -0.0004273724
 C         -2.3795487600        0.4079801764        0.0002549225
 H          3.0030974580        0.2605480118        0.8778975838
 H          2.9919813283        0.2735473243       -0.8880799981
 H          2.0091058896        1.4309639521        0.0095313429
 H          1.1869496383       -1.1861684749        0.8886521229
 H          1.1871294328       -1.1872329149       -0.8869435325
 H         -1.2022161291       -1.1792070540       -0.8915417962
 H         -1.2020256480       -1.1799953778        0.8900768039
 H         -3.2996722611       -0.1675457419       -0.0004905054
 H         -2.3482981848        1.0400970813        0.8829131108
 H         -2.3480472561        1.0418226703       -0.8811621722
  15
        -17.71925911
 C          1.6215466901        0.8575475273       -0.3464893123
 C          1.2535764810       -0.5585203934        0.0887338771
 O         -0.0277510539       -0.6885818555        0.6778648885
 C         -1.1347585266       -0.5332113310       -0.1995448373
 C         -1.7150846173        0.8903247550       -0.2030265854
 H          2.6494083445        0.8631144869       -0.6969305724
 H          0.9757606124        1.1965287920       -1.1519390720
 H          1.5319662274        1.5430427932        0.4924227460
 H          1.9387159495       -0.8993279225        0.8689898565
 H          1.3304607479       -1.2422167741       -0.7701127696
 H         -0.8390832689       -0.8378042019       -1.2105091089
 H         -1.8823497216       -1.2441870031        0.1638479531
 H         -1.0654525463        1.5490548981        0.3657481095
 H         -1.8041024977        1.2754589243       -1.2145460664
 H         -2.6960610798        0.9077976400        0.2615659750
