  15
    -0.237576 !GC
 C          0.0000000000        0.0000000000        0.0000000000
 C          1.3925845925        0.0000000000        0.0000000000
 C          2.1058349103        1.1823715032        0.0000000000
 C          1.4320192338        2.4025112719        0.0006399026
 C          0.0179643283        2.4072051098        0.0011484531
 C         -0.6816535907        1.1958541986        0.0008162611
 C         -0.6527608799        3.6830145318        0.0023262817
 O         -0.1000787925        4.7788548834       -0.0026378511
 O          2.0342195414        3.5963282258        0.0011329521
 H         -0.5379326754       -0.9341807151       -0.0008199364
 H          1.9252130052       -0.9382322779       -0.0005645167
 H          3.1854143804        1.1633441465       -0.0009516846
 H         -1.7605336466        1.2192860358        0.0010862038
 H         -1.7478727208        3.5977991313        0.0086909206
 H          3.0099740509        3.4357065940       -0.0039807041
  15
    -0.157275 !GC
 C          0.0000000000        0.0000000000        0.0000000000
 C          1.3996101289        0.0000000000        0.0000000000
 C          2.1048990852        1.1776532710        0.0000000000
 C          1.4289974087        2.4064886333       -0.0000700968
 C          0.0098700831        2.4141218444        0.0006192406
 C         -0.6833181101        1.1877157615        0.0007772075
 C         -0.7172703917        3.6438700723        0.0000227338
 O         -1.9484082328        3.7503178505       -0.0008797330
 O          2.2121233762        3.4772304776       -0.0006089782
 H         -0.5333628745       -0.9367404843       -0.0005054921
 H          1.9318671499       -0.9379432173        0.0004544842
 H          3.1800594581        1.2231229624        0.0000268718
 H         -1.7628539474        1.1865507676        0.0015324539
 H         -0.1044705768        4.5593763031        0.0003003169
 H          3.1627637897        3.1720792191       -0.0012030052
  15
    -0.143071 !GC
 C          0.0000000000        0.0000000000        0.0000000000
 C          1.3994193664        0.0000000000        0.0000000000
 C          2.1101595236        1.1764941866        0.0000000000
 C          1.4345524352        2.4028726356        0.0005349201
 C          0.0180879548        2.4098300336        0.0012782911
 C         -0.6822929347        1.1885715978        0.0010271877
 C         -0.6717761061        3.6606069742        0.0014466957
 O         -0.0968363172        4.7577574366        0.0011606371
 O          2.2161768529        3.4818114202        0.0001897451
 H         -0.5344874003       -0.9363191836       -0.0009684795
 H          1.9298636097       -0.9389739153        0.0000683621
 H          3.1854535868        1.2158078633       -0.0009599941
 H         -1.7616866721        1.2119784762        0.0017718234
 H         -1.7673621170        3.6264833344        0.0013916381
 H          3.1663325515        3.1747217169       -0.0028762592
  15
    -0.111406 !GC
 C          0.0000000000        0.0000000000        0.0000000000
 C          1.3927753550        0.0000000000        0.0000000000
 C          2.1005529153        1.1835395708        0.0000000000
 C          1.4264364615        2.4061338419        0.0000368056
 C          0.0097177689        2.4114979630        0.0004917412
 C         -0.6826863662        1.1949985786        0.0005649081
 C         -0.6990383941        3.6668436690        0.0008631987
 O         -1.9111318559        3.8399337013        0.0054852873
 O          2.0314420748        3.5920877685        0.0002480656
 H         -0.5368098749       -0.9346060893       -0.0003577198
 H          1.9272156103       -0.9371974771       -0.0001782274
 H          3.1803324831        1.1706873276        0.0000724000
 H         -1.7617092284        1.1938703856        0.0008439046
 H         -0.0079490415        4.5277526822       -0.0047323680
 H          3.0073886598        3.4334321693       -0.0024473295
  15
    -0.018309 !GC
 C          0.0000000000        0.0000000000        0.0000000000
 C          1.3971906495        0.0000000000        0.0000000000
 C          2.1099725107        1.1775972153        0.0000000000
 C          1.4325763801        2.4011812424        0.0003433875
 C          0.0137855340        2.4060470818        0.0009013145
 C         -0.6861648419        1.1898039684        0.0009299229
 C         -0.6572082981        3.6692254914        0.0006985755
 O         -1.8823505088        3.8326440055        0.0049208943
 O          2.1007256792        3.5485155378        0.0007280140
 H         -0.5328056029       -0.9371593725       -0.0008180821
 H          1.9275057912       -0.9393179261       -0.0000035011
 H          3.1877951971        1.1896505579       -0.0003621629
 H         -1.7652975027        1.1907609544        0.0015304926
 H          0.0220006541        4.5316632062       -0.0043933469
 H          1.4084569065        4.2729427592        0.0056165227
