  9
  -11.8605801800000       0.333334509103194      !
 C         -1.6348368376       -0.4746010130        0.0000007430
 C         -0.6017619010        0.6561539188        0.0000047524
 C          0.7360774462        0.1351063071       -0.0000151480
 N          1.7985646269       -0.2941208449        0.0000073639
 H         -1.5176626250       -1.0992439195        0.8822236964
 H         -2.6356749419       -0.0525714281       -0.0000920154
 H         -1.5175356683       -1.0993679414       -0.8821260118
 H         -0.7211082920        1.2825252934        0.8874389312
 H         -0.7211310026        1.2825189099       -0.8874319109
  9
  -11.8605801800000       0.333334509103194      !
 C         -1.6348852863       -0.4745967836        0.0000044549
 C         -0.6017597754        0.6561418159       -0.0000240883
 C          0.7360932752        0.1351202642        0.0000595190
 N          1.7986013563       -0.2941176547       -0.0000289206
 H         -1.5176407000       -1.0993787009       -0.8821020562
 H         -1.5176224138       -1.0992186840        0.8822277854
 H         -2.6357736153       -0.0526926683       -0.0000544339
 H         -0.7211438744        1.2825992648        0.8873555234
 H         -0.7210789595        1.2824348782       -0.8875002093
  9
  -11.8605801700000       0.333330981793612      !
 C         -1.6348429947       -0.4745971292        0.0000052829
 C         -0.6017551429        0.6561453008       -0.0000270672
 C          0.7360846957        0.1351047114        0.0000686462
 N          1.7985578184       -0.2941137692       -0.0000327707
 H         -2.6356929214       -0.0525944287       -0.0000256489
 H         -1.5175803082       -1.0993308251       -0.8821427607
 H         -1.5176049931       -1.0992576159        0.8822078083
 H         -0.7211544775        1.2825642241        0.8873651238
 H         -0.7210787639        1.2824566618       -0.8875075403
