  13
        -26.89702882
 C          1.8693696668       -1.2347899200       -0.0065811263
 O          0.9376224146       -0.4909973191       -0.8049060663
 S         -0.0000238980        0.4761559348        0.0000263001
 O         -0.7510224707        1.2072995613       -0.9720832066
 O          0.7507855940        1.2073470980        0.9722396045
 O         -0.9372660258       -0.4915473731        0.8048037644
 C         -1.8694421428       -1.2347237937        0.0064701991
 H          2.5809124916       -1.6684130787       -0.7045376510
 H          1.3378049313       -2.0070210175        0.5485551238
 H          2.3579264652       -0.5512558968        0.6863843977
 H         -2.3623399793       -0.5498131114       -0.6820705881
 H         -2.5771571750       -1.6733895505        0.7051108814
 H         -1.3374199104       -2.0029266862       -0.5538156923
