  13
        -13.92310770
 C         -1.9487207221       -0.1417851978        0.0001307816
 C         -0.5810138328        0.5289849978        0.0000026395
 C          0.5571823938       -0.5007180646       -0.0002551126
 N          1.8979745492        0.0658264137       -0.0000435158
 H         -2.0640986293       -0.7677206640       -0.8817453002
 H         -2.0637435935       -0.7680855138        0.8818046510
 H         -2.7397631173        0.6040190381        0.0004032068
 H         -0.4862744998        1.1669527627        0.8831848770
 H         -0.4865149057        1.1666496619       -0.8834185431
 H          0.4694515222       -1.1390935155        0.8835058673
 H          0.4696840334       -1.1383609048       -0.8845933214
 H          2.0165554097        0.6545573730        0.8181368857
 H          2.0149287910        0.6590309724       -0.8152235236
