  14
  -17.2439971600000       7.352176616796728E-002 !
 C         -3.4477408076       -0.5977539064       -0.1515902503
 C         -2.0686679958       -0.2841895091        0.4149396744
 C         -1.4033463329        0.8676877310       -0.3351088619
 C         -0.0447973943        1.2328199998        0.2276730413
 Br         1.2740649051       -0.2164592327       -0.0273495692
 H         -4.0997308639        0.2689659062       -0.0717508305
 H         -3.3744950172       -0.8779901857       -1.1997672828
 H         -3.9015716597       -1.4214866838        0.3926825376
 H         -1.4383559554       -1.1737903432        0.3442281995
 H         -2.1594571050       -0.0231573644        1.4720378529
 H         -1.3072675976        0.6090543321       -1.3919711467
 H         -2.0323642048        1.7587314768       -0.2636975494
 H         -0.0815879430        1.4011333543        1.3025397743
 H          0.3849627708        2.0975856463       -0.2740750400
  14
  -17.2439971200000       7.351865421969977E-002 !
 C         -3.4474674501       -0.5977666032       -0.1516745608
 C         -2.0685429500       -0.2840472041        0.4151242977
 C         -1.4033073959        0.8677730104       -0.3350941990
 C         -0.0447676416        1.2328615534        0.2277108102
 Br         1.2739783477       -0.2165030581       -0.0273759228
 H         -3.3739893591       -0.8783156441       -1.1997436339
 H         -3.9013600875       -1.4213704348        0.3927257459
 H         -4.0995412077        0.2689337938       -0.0722496274
 H         -1.4381445990       -1.1736204302        0.3447067208
 H         -2.1595683480       -0.0228051940        1.4721544944
 H         -1.3071868476        0.6090037185       -1.3919396139
 H         -2.0322688533        1.7588810763       -0.2637199294
 H         -0.0815115794        1.4011316143        1.3025849142
 H          0.3849991239        2.0976260730       -0.2740235212
  14
  -17.2439971200000       7.351865421969977E-002 !
 C         -3.4480351003       -0.5976256057       -0.1515966014
 C         -2.0689172184       -0.2842890678        0.4148917213
 C         -1.4038554409        0.8677117551       -0.3351764140
 C         -0.0451790635        1.2324579986        0.2275631748
 Br         1.2743240559       -0.2164095995       -0.0273118664
 H         -3.9017535905       -1.4214504368        0.3926164393
 H         -4.1000847823        0.2690631645       -0.0716717884
 H         -3.3747873374       -0.8777800156       -1.1997836604
 H         -1.4386209644       -1.1739174454        0.3440579629
 H         -2.1596779753       -0.0233126863        1.4720061170
 H         -1.3078887204        0.6091503119       -1.3920820931
 H         -2.0328149048        1.7588109652       -0.2635295020
 H         -0.0820176686        1.4008142485        1.3024156728
 H          0.3843256344        2.0974182890       -0.2740302510
  14
  -17.2439959900000       7.343079608018041E-002 !
 C         -3.4521422240       -0.5885635073        0.0258623541
 C         -2.0438440050       -0.3324196683       -0.4958925238
 C         -1.4169470187        0.8944983885        0.1626351538
 C         -0.0284214063        1.2013546191       -0.3604539431
 Br         1.2699010305       -0.2086206976        0.1203030905
 H         -3.4358019024       -0.7564154122        1.1001075681
 H         -4.0966448067        0.2629097142       -0.1798431592
 H         -3.8783810782       -1.4664990574       -0.4518698998
 H         -2.0770471846       -0.1849441118       -1.5779743988
 H         -1.4205680583       -1.2075670555       -0.2976162418
 H         -2.0382561477        1.7712354872       -0.0375138697
 H         -1.3797431886        0.7499056616        1.2446687272
 H          0.3757947786        2.1160018351        0.0688174309
 H         -0.0055613799        1.2536951910       -1.4475235816
  14
  -17.2439959900000       7.343079608018041E-002 !
 C         -3.4520334518       -0.5885873810        0.0258648113
 C         -2.0437723017       -0.3323572464       -0.4958984701
 C         -1.4168968628        0.8945935894        0.1626467807
 C         -0.0283997447        1.2013997061       -0.3604570610
 Br         1.2698549077       -0.2086487232        0.1203047415
 H         -3.8781561938       -1.4665999134       -0.4518877612
 H         -3.4357738719       -0.7563676562        1.1001865175
 H         -4.0965787115        0.2628256002       -0.1798269765
 H         -2.0769913481       -0.1849948079       -1.5780283953
 H         -1.4204263411       -1.2074711728       -0.2975962373
 H         -2.0382140002        1.7712820274       -0.0375773152
 H         -1.3797155468        0.7500904136        1.2446846478
 H          0.3756717094        2.1162105476        0.0686366080
 H         -0.0053746733        1.2534378920       -1.4475292178
  14
  -17.2439959100000       7.342458001616474E-002 !
 C         -3.4519853884       -0.5883493707        0.0258305657
 C         -2.0434524358       -0.3326975789       -0.4956866710
 C         -1.4170797458        0.8949165564        0.1621952636
 C         -0.0283444965        1.2016061208       -0.3603229591
 Br         1.2698156016       -0.2087104819        0.1203241562
 H         -4.0966668099        0.2628935412       -0.1810415892
 H         -3.8777067956       -1.4672415319       -0.4509154053
 H         -3.4361149922       -0.7551490003        1.1003236796
 H         -2.0759146158       -0.1865424751       -1.5779636808
 H         -1.4204490811       -1.2077042551       -0.2958143278
 H         -2.0385954091        1.7714449304       -0.0384909044
 H         -1.3803707472        0.7508511829        1.2443539479
 H          0.3754747637        2.1167893080        0.0681775242
 H         -0.0049627118        1.2528781961       -1.4474398400
  14
  -17.2437761400000       5.818917127480432E-002 !
 C         -3.8400312297       -0.7701446798       -0.0890390062
 C         -2.7358301664        0.1134568974        0.4790944343
 C         -1.3640826632       -0.3018255209       -0.0542325064
 C         -0.2790425753        0.5864019332        0.5205390955
 Br         1.5023944509        0.0712505530       -0.1538879153
 H         -3.6744766962       -1.8097406513        0.1829505915
 H         -4.8072279586       -0.4623809717        0.2988157684
 H         -3.8651730404       -0.6992447887       -1.1737169049
 H         -2.7369002076        0.0430375342        1.5686702242
 H         -2.9279871219        1.1543955714        0.2114206399
 H         -1.1668568957       -1.3422557515        0.2135058350
 H         -1.3580671092       -0.2302791795       -1.1441543818
 H         -0.2158948201        0.5040479320        1.6042544477
 H         -0.4099089962        1.6282227923        0.2330627894
  14
  -17.2437761300000       5.818855552320258E-002 !
 C         -3.8400423297       -0.7701145759       -0.0890965237
 C         -2.7358397814        0.1134607959        0.4791294702
 C         -1.3640920073       -0.3018682898       -0.0541278007
 C         -0.2790535601        0.5864828444        0.5204713011
 Br         1.5024016612        0.0712365781       -0.1538876470
 H         -4.8072379408       -0.4624311808        0.2987856850
 H         -3.8651779093       -0.6990935700       -1.1737592484
 H         -3.6745126218       -1.8097628146        0.1827537081
 H         -2.7369403940        0.0430210755        1.5687076718
 H         -2.9278608627        1.1544326097        0.2114788826
 H         -1.1668551291       -1.3422309202        0.2138358041
 H         -1.3580996269       -0.2305678972       -1.1440698891
 H         -0.2160240800        0.5044602770        1.6042080576
 H         -0.4098667881        1.6282230715        0.2326751252
  14
  -17.2437760400000       5.818301405242785E-002 !
 C         -3.8399360315       -0.7702496079       -0.0889123958
 C         -2.7357872641        0.1136932309        0.4787828750
 C         -1.3639122903       -0.3017344682       -0.0540755576
 C         -0.2789749862        0.5866706523        0.5205237039
 Br         1.5023375592        0.0711752446       -0.1538812948
 H         -3.8650740444       -0.7002735429       -1.1736237620
 H         -3.6743337187       -1.8096381255        0.1837729452
 H         -4.8073092997       -0.4625256525        0.2986387295
 H         -2.7371296470        0.0436913856        1.5684334722
 H         -2.9280825714        1.1544811807        0.2105419652
 H         -1.1668632689       -1.3419914632        0.2144136248
 H         -1.3576279169       -0.2308758413       -1.1440330926
 H         -0.2164130770        0.5048183995        1.6040375338
 H         -0.4096304744        1.6282332263        0.2326198222
  14
  -17.2431637900000       3.043866470802282E-002 !
 C         -2.8976801779       -0.5953870084       -0.5861079244
 C         -2.1165913703       -0.1606063532        0.6492343756
 C         -1.3284989000        1.1332437527        0.4422815687
 C         -0.2035233099        1.0194751616       -0.5676115425
 Br         1.1945919680       -0.2464974756        0.0220281816
 H         -3.5456159664        0.2073274581       -0.9310778154
 H         -2.2321935210       -0.8779267265       -1.3982326701
 H         -3.5155504662       -1.4575220059       -0.3493989710
 H         -1.4315220781       -0.9576454156        0.9474741035
 H         -2.8146546809       -0.0032307125        1.4732692498
 H         -2.0030327244        1.9143998838        0.0825090200
 H         -0.9172553258        1.4587333663        1.4004730981
 H          0.3119526491        1.9686374186       -0.7009053995
 H         -0.5458740738        0.6445360784       -1.5291491967
  14
  -17.2431636100000       3.043286745329900E-002 !
 C         -2.8960369130       -0.5957452341       -0.5862004510
 C         -2.1166131414       -0.1595440415        0.6496828408
 C         -1.3282527517        1.1341159274        0.4424633067
 C         -0.2031935757        1.0201427819       -0.5673395941
 Br         1.1941846565       -0.2468971096        0.0218847710
 H         -3.5147949616       -1.4571692938       -0.3491907084
 H         -3.5428854110        0.2068565457       -0.9334195465
 H         -2.2294469490       -0.8799119713       -1.3968189205
 H         -1.4319256133       -0.9562492542        0.9496582923
 H         -2.8157662930       -0.0013545994        1.4726382181
 H         -2.0026604882        1.9152569338        0.0824578543
 H         -0.9171774657        1.4598162843        1.4006551075
 H          0.3127160404        1.9691232517       -0.7002232797
 H         -0.5456999979        0.6458837076       -1.5290744436
  14
  -17.2431635400000       3.043061326359581E-002 !
 C         -2.8953695159       -0.5960100878       -0.5861962989
 C         -2.1166677281       -0.1589601794        0.6498206777
 C         -1.3281548795        1.1346008798        0.4425304242
 C         -0.2030344050        1.0204218037       -0.5671802519
 Br         1.1940198712       -0.2470847961        0.0218215284
 H         -2.2281731204       -0.8810213710       -1.3960162440
 H         -3.5145855714       -1.4570745436       -0.3490035239
 H         -3.5416721537        0.2065376173       -0.9345571464
 H         -1.4321448156       -0.9554844387        0.9506193717
 H         -2.8163700400       -0.0003908236        1.4722275401
 H         -2.0024892629        1.9156860593        0.0822965290
 H         -0.9171117129        1.4604760708        1.4006798900
 H          0.3131348771        1.9692763172       -0.6999998651
 H         -0.5455314185        0.6462204410       -1.5289409540
  14
  -17.2431619100000       3.037817003085106E-002 !
 C         -2.9148844730       -0.5111996042        0.5711071610
 C         -2.0947034825       -0.2571996150       -0.6890426082
 C         -1.3102283029        1.0545904831       -0.6463442696
 C         -0.2193359228        1.0913342322        0.4058142651
 Br         1.1936470489       -0.2446256663        0.0536279022
 H         -3.5278777456       -1.3992168734        0.4416765466
 H         -2.2754962757       -0.6733961411        1.4354279056
 H         -3.5705413153        0.3318857741        0.7771929644
 H         -2.7664449014       -0.2216892992       -1.5484530163
 H         -1.4026907785       -1.0875093704       -0.8478090156
 H         -0.8669156621        1.2382862540       -1.6276219382
 H         -1.9940053740        1.8784104919       -0.4262754662
 H         -0.5942284658        0.8601826945        1.3999634005
 H          0.2942620473        2.0507599828        0.4161133995
  14
  -17.2431617400000       3.037270569848890E-002 !
 C         -2.9116732682       -0.5120323556        0.5715713488
 C         -2.0943301109       -0.2551837297       -0.6896696348
 C         -1.3094427404        1.0563025410       -0.6459280633
 C         -0.2185588282        1.0922483196        0.4060931919
 Br         1.1927020936       -0.2452957473        0.0535423644
 H         -3.5655151870        0.3315117091        0.7820251178
 H         -3.5262513255       -1.3987878021        0.4408374700
 H         -2.2697077624       -0.6780516262        1.4332015510
 H         -2.7683042376       -0.2175389178       -1.5471288150
 H         -1.4033977665       -1.0854658588       -0.8523364199
 H         -0.8665856029        1.2406050195       -1.6273421552
 H         -1.9927505387        1.8801893340       -0.4247283855
 H         -0.5934569877        0.8616742459        1.4002379145
 H          0.2956063338        2.0513056294        0.4158865440
  14
  -17.2431616600000       3.037013458798195E-002 !
 C         -2.9106712635       -0.5122451443        0.5718502458
 C         -2.0946466827       -0.2545513807       -0.6901382929
 C         -1.3094765313        1.0566620290       -0.6457500535
 C         -0.2184149622        1.0923523891        0.4061430028
 Br         1.1925440636       -0.2454516024        0.0535214488
 H         -2.2677833751       -0.6792984574        1.4325838459
 H         -3.5641567542        0.3310474373        0.7843078627
 H         -3.5255490865       -1.3987609874        0.4410387408
 H         -2.7694365435       -0.2162463537       -1.5470234441
 H         -1.4034159461       -1.0844113308       -0.8539338047
 H         -0.8669392044        1.2413060646       -1.6273104538
 H         -1.9927450661        1.8803871492       -0.4240025392
 H         -0.5930128717        0.8618619124        1.4004397079
 H          0.2957240889        2.0513882297        0.4157574482
  14
  -17.2431515500000       3.004695608409315E-002 !
 C         -3.4115498048       -0.6909569172       -0.5228793848
 C         -2.7834124112        0.1047138155        0.6162450805
 C         -1.2881754984       -0.1717846265        0.7949180794
 C         -0.4799289296        0.3431914774       -0.3802383040
 Br         1.4533437613        0.0795062549       -0.0809991916
 H         -3.0198536033       -0.3784543367       -1.4873620168
 H         -3.2174252006       -1.7536054296       -0.3972915669
 H         -4.4876281128       -0.5393444795       -0.5326956208
 H         -3.2851378528       -0.1569510867        1.5491312487
 H         -2.9361460339        1.1722189299        0.4454245936
 H         -0.9416234433        0.3178292113        1.7079288054
 H         -1.1245659092       -1.2457198816        0.9084317307
 H         -0.6101863766        1.4144691920       -0.5244383881
 H         -0.7010518846       -0.1899879042       -1.3019234926
  14
  -17.2431515400000       3.004663813040982E-002 !
 C         -3.4113992802       -0.6908552600       -0.5228912105
 C         -2.7834221498        0.1047784175        0.6163481381
 C         -1.2882292882       -0.1719461024        0.7949080358
 C         -0.4799505568        0.3433406770       -0.3801127779
 Br         1.4533281867        0.0794738377       -0.0810348129
 H         -3.2173997604       -1.7535186315       -0.3973763264
 H         -4.4874583840       -0.5390999815       -0.5327663193
 H         -3.0195636679       -0.3783873655       -1.4873413376
 H         -3.2851805355       -0.1568883292        1.5492468121
 H         -2.9360433822        1.1723243985        0.4455360502
 H         -0.9417406717        0.3174588106        1.7080243492
 H         -1.1246640203       -1.2459012672        0.9082207863
 H         -0.6099516671        1.4146659897       -0.5239564038
 H         -0.7011606116       -0.1894644442       -1.3020217043
  14
  -17.2431515300000       3.004632018009105E-002 !
 C         -3.4116239685       -0.6907996479       -0.5229253082
 C         -2.7833894365        0.1045309711        0.6163910242
 C         -1.2881545849       -0.1721014225        0.7948687420
 C         -0.4799395180        0.3432114710       -0.3801660348
 Br         1.4533516786        0.0795622140       -0.0810200721
 H         -4.4876966972       -0.5391439231       -0.5326775951
 H         -3.0199417522       -0.3780685351       -1.4873275493
 H         -3.2175725624       -1.7534923399       -0.3977081285
 H         -3.2850698119       -0.1574093025        1.5492250943
 H         -2.9360726174        1.1721062688        0.4459245102
 H         -0.9415351207        0.3172170398        1.7080064868
 H         -1.1245708523       -1.2460747233        0.9080535875
 H         -0.6103063577        1.4145029701       -0.5241301787
 H         -0.7009933387       -0.1897778543       -1.3019707629
  14
  -17.2431514000000       3.004218713244385E-002 !
 C         -3.3424089539       -1.0840231027        0.2052864637
 C         -2.8266214375        0.3503220988        0.1615242931
 C         -1.3999267072        0.4640613546       -0.3822850799
 C         -0.3908319425       -0.1636629340        0.5596045311
 Br         1.4513322495        0.0909158994       -0.1024663870
 H         -3.2531855813       -1.5507019322       -0.7729175619
 H         -2.7905358354       -1.6815858888        0.9261277750
 H         -4.3901513823       -1.0935160001        0.4937303875
 H         -2.8682410508        0.7854166196        1.1620544568
 H         -3.4782040804        0.9409515963       -0.4843154325
 H         -1.3397756498       -0.0214449755       -1.3588168123
 H         -1.1529317393        1.5195606578       -0.5176885722
 H         -0.5164894716       -1.2404870584        0.6453755071
 H         -0.4136992613        0.2978195708        1.5454568922
  14
  -17.2431513200000       3.003964400110993E-002 !
 C         -3.3417644396       -1.0847003063        0.2038998849
 C         -2.8267158718        0.3499749064        0.1627842584
 C         -1.4002160165        0.4650826684       -0.3812019719
 C         -0.3910496121       -0.1675109196        0.5573660909
 Br         1.4513151384        0.0916253928       -0.1022114830
 H         -2.7906538525       -1.6828064053        0.9249173159
 H         -4.3899138852       -1.0948447509        0.4908247322
 H         -3.2509787668       -1.5501834871       -0.7747603344
 H         -2.8684478706        0.7832866974        1.1641025095
 H         -3.4785383802        0.9415150144       -0.4819631319
 H         -1.3406622897       -0.0158736808       -1.3600485618
 H         -1.1528192097        1.5210847538       -0.5117529176
 H         -0.5161930823       -1.2448627836        0.6369211200
 H         -0.4141638414        0.2883425946        1.5458344457
  14
  -17.2431512600000       3.003773679394521E-002 !
 C         -3.3424213664       -1.0833769680        0.2065417978
 C         -2.8263701918        0.3508339690        0.1604886129
 C         -1.3995358735        0.4631183625       -0.3832545015
 C         -0.3906250650       -0.1601983163        0.5617327794
 Br         1.4511825735        0.0902341857       -0.1027315670
 H         -4.3899412367       -1.0920687402        0.4961154192
 H         -3.2543071054       -1.5512932730       -0.7712727737
 H         -2.7899117839       -1.6801838313        0.9276479491
 H         -2.8680807645        0.7877509272        1.1602531845
 H         -3.4776369634        0.9404698193       -0.4866121411
 H         -1.3387423607       -0.0261972598       -1.3578280535
 H         -1.1530192232        1.5181679377       -0.5228206534
 H         -0.5164047659       -1.2365173296        0.6527955761
 H         -0.4132727839        0.3060796471        1.5453238852
  14
  -17.2411599900000       3.652101817619903E-003 !
 C         -2.2943945525       -0.9600028615        0.1128437363
 C         -2.4566563283        0.5488245477        0.2570519866
 C         -1.2746896919        1.3564330646       -0.2831828412
 C          0.0187566795        1.1768816246        0.4945483125
 Br         1.0903879332       -0.3720072586       -0.1075790605
 H         -1.5025832535       -1.3387467711        0.7534642961
 H         -3.2176753054       -1.4618741759        0.3915183875
 H         -2.0579123740       -1.2242048397       -0.9156156854
 H         -2.6102285423        0.7987720499        1.3093746273
 H         -3.3487187010        0.8606104637       -0.2896260245
 H         -1.1114603712        1.1125409168       -1.3349452766
 H         -1.5329332411        2.4169889136       -0.2274387852
 H         -0.1627404475        1.0118062740        1.5550225844
 H          0.6847027875        2.0270057749        0.3600977301
  14
  -17.2411599800000       3.652063171468141E-003 !
 C         -2.3015377626       -0.9398880747       -0.1391314898
 C         -2.4651607524        0.5719019245       -0.0320539136
 C         -1.2515114329        1.2885619770        0.5634570978
 C         -0.0035990312        1.2399349877       -0.3029246849
 Br         1.0932478962       -0.3794649642       -0.0120765001
 H         -1.5473058682       -1.2081610373       -0.8740277701
 H         -2.0105193093       -1.3633429254        0.8197969539
 H         -3.2406499666       -1.3952725446       -0.4435681559
 H         -3.3243569831        0.7885513863        0.6056456738
 H         -2.6756554247        0.9856389695       -1.0209716996
 H         -1.5073864726        2.3434506676        0.6909953890
 H         -1.0319504319        0.8814964763        1.5525885752
 H          0.6721488958        2.0614409377       -0.0732571243
 H         -0.2439372848        1.2430249189       -1.3645180448
  14
  -17.2411599700000       3.652024525725330E-003 !
 C         -2.3010818746       -0.9398087493       -0.1389649920
 C         -2.4649314316        0.5719953909       -0.0323819937
 C         -1.2514630304        1.2886284644        0.5634427725
 C         -0.0035372924        1.2400503265       -0.3029054502
 Br         1.0931091540       -0.3795310494       -0.0120494649
 H         -2.0105489176       -1.3631067967        0.8201928230
 H         -3.2401033716       -1.3951306554       -0.4437274665
 H         -1.5465433490       -1.2083188726       -0.8734769802
 H         -3.3241914057        0.7888537264        0.6051579330
 H         -2.6752224390        0.9855432523       -1.0214448074
 H         -1.5075567317        2.3434755507        0.6908769457
 H         -1.0319863931        0.8816195718        1.5526364630
 H          0.6719183457        2.0618062767       -0.0733094653
 H         -0.2438574151        1.2430979675       -1.3644979078
  14
  -17.2411599700000       3.652024525725330E-003 !
 C         -2.3013541155       -0.9398421142       -0.1391293767
 C         -2.4650919512        0.5719415480       -0.0320984173
 C         -1.2515134619        1.2886111525        0.5635079326
 C         -0.0037126269        1.2398335499       -0.3030007349
 Br         1.0932230813       -0.3794737692       -0.0120626448
 H         -3.2404653863       -1.3951976373       -0.4436026865
 H         -1.5471248064       -1.2080974936       -0.8740390385
 H         -2.0103304681       -1.3633157191        0.8198050811
 H         -3.3242313774        0.7886164152        0.6056514267
 H         -2.6756571061        0.9856793958       -1.0210051756
 H         -1.5073937985        2.3435132481        0.6909360704
 H         -1.0319374723        0.8816196641        1.5526810816
 H          0.6719881252        2.0613889406       -0.0734687103
 H         -0.2441237839        1.2429209735       -1.3645670161
  14
  -17.2411598800000       3.651676732483220E-003 !
 C         -2.2941166119       -0.9599753007        0.1139252460
 C         -2.4572307867        0.5489894000        0.2557117366
 C         -1.2745730142        1.3561572055       -0.2837150621
 C          0.0182196831        1.1763015918        0.4951388391
 Br         1.0905173170       -0.3718811860       -0.1075651232
 H         -3.2175748225       -1.4617771168        0.3921405736
 H         -2.0560510269       -1.2255898889       -0.9138567360
 H         -1.5030313893       -1.3374112362        0.7562778774
 H         -2.6125922366        0.8004185417        1.3074412584
 H         -3.3486303024        0.8596145022       -0.2926790919
 H         -1.1107124301        1.1120052615       -1.3353276958
 H         -1.5325402477        2.4168001065       -0.2284172906
 H         -0.1641557913        1.0099877495        1.5552556503
 H          0.6840239259        2.0267624917        0.3623008424
  14
  -17.2411598300000       3.651483528318144E-003 !
 C         -2.2946377837       -0.9599912930        0.1130273386
 C         -2.4570248903        0.5488455359        0.2568361214
 C         -1.2749038115        1.3562872283       -0.2832886176
 C          0.0184501892        1.1765773493        0.4946492347
 Br         1.0905933747       -0.3719375942       -0.1075836569
 H         -2.0581286110       -1.2244705956       -0.9153926839
 H         -1.5028424755       -1.3386107138        0.7538008548
 H         -3.2179187979       -1.4616904003        0.3919144925
 H         -2.6108576781        0.7990621275        1.3090392885
 H         -3.3490256551        0.8605628609       -0.2898120319
 H         -1.1116998881        1.1124064813       -1.3350842675
 H         -1.5329595932        2.4168913991       -0.2275559396
 H         -0.1631923791        1.0112997110        1.5550314354
 H          0.6842832970        2.0269007888        0.3607173683
