  8
        -14.48508082
 C         -0.4615616085       -0.5974724715       -0.0000058405
 C          0.4614034745        0.5970964720       -0.0000115306
 Br         2.3243872939       -0.0222122856        0.0000011573
 Br        -2.3243530535        0.0222770746        0.0000017291
 H         -0.3368857199       -1.2093621287        0.8929670839
 H         -0.3369647069       -1.2094288073       -0.8929466987
 H          0.3364613735        1.2090365204       -0.8928722718
 H          0.3365590195        1.2090987811        0.8928300636
