  14
  -17.7217083700000       3.691452062398213E-002 !
 C         -0.9208759196        1.3817440402       -0.4485578365
 C         -0.4735496958        0.0000096140       -0.0000246762
 C         -0.9206127752       -1.0794374197       -0.9723214640
 C         -0.9207211611       -0.3024699821        1.4208778619
 Cl         1.3613975148        0.0000639586        0.0000082560
 H         -0.5510309008        1.5994002388       -1.4472119504
 H         -2.0071561852        1.4196730659       -0.4612362132
 H         -0.5515564367        2.1443695984        0.2322413854
 H         -0.5503109903       -2.0530131479       -0.6616498129
 H         -2.0068803496       -1.1098381508       -0.9986357503
 H         -0.5515557862       -0.8708798051       -1.9732108139
 H         -2.0070075431       -0.3103564906        1.4602211654
 H         -0.5506971724        0.4536065239        2.1085635428
 H         -0.5514240452       -1.2733794155        1.7409392421
  14
  -17.7217083700000       3.691452062398213E-002 !
 C         -0.9208590808        1.3816419314       -0.4485259241
 C         -0.4735248502       -0.0000705021       -0.0000165977
 C         -0.9206757009       -1.0794207988       -0.9723756683
 C         -0.9207586652       -0.3024221164        1.4208942295
 Cl         1.3614240405        0.0001066232        0.0000070556
 H         -2.0071513830        1.4195363927       -0.4612393565
 H         -0.5515361244        2.1442329184        0.2323215070
 H         -0.5509450314        1.5992468566       -1.4471709584
 H         -0.5516266761       -0.8707723780       -1.9732599066
 H         -0.5503353287       -2.0530012489       -0.6617139426
 H         -2.0069623412       -1.1097634835       -0.9986509639
 H         -0.5507218143        0.4536343184        2.1086087932
 H         -0.5515304308       -1.2733580803        1.7409321619
 H         -2.0070432664       -0.3102705657        1.4602100100
  14
  -17.7217083600000       3.691412999846360E-002 !
 C         -0.9208868323        1.3816499592       -0.4485104166
 C         -0.4735126659       -0.0000565017       -0.0000214753
 C         -0.9206708437       -1.0794226706       -0.9723686498
 C         -0.9207712656       -0.3024075685        1.4208775717
 Cl         1.3614381445        0.0000910195        0.0000027619
 H         -0.5515131187        2.1441969026        0.2323223218
 H         -0.5510746488        1.5993357853       -1.4471521041
 H         -2.0071585673        1.4195779321       -0.4611470318
 H         -0.5515998979       -0.8709083843       -1.9732829376
 H         -0.5504471776       -2.0529976964       -0.6616107927
 H         -2.0069417064       -1.1097571905       -0.9986501924
 H         -0.5514981889       -1.2733017962        1.7410028493
 H         -2.0070435627       -0.3102509190        1.4601841271
 H         -0.5507938478        0.4537253972        2.1085103271
  14
  -17.7217083600000       3.691412999846360E-002 !
 C         -0.9208759738        1.3816796227       -0.4485384206
 C         -0.4735452986       -0.0000506982       -0.0000459008
 C         -0.9206597014       -1.0794414193       -0.9724184122
 C         -0.9206926735       -0.3024044184        1.4208961609
 Cl         1.3614039954        0.0000837967        0.0000380415
 H         -2.0071712144        1.4196633253       -0.4610974462
 H         -0.5514081600        2.1442650116        0.2322324127
 H         -0.5510853939        1.5992567499       -1.4472341927
 H         -2.0069243435       -1.1097356712       -0.9987676936
 H         -0.5515689691       -0.8709559569       -1.9733314313
 H         -0.5504985332       -2.0530516156       -0.6616697959
 H         -0.5512919209       -1.2732438255        1.7410726637
 H         -2.0069783581       -0.3103314706        1.4602332545
 H         -0.5507524994        0.4537707814        2.1084941031
  14
  -17.7217083600000       3.691412999846360E-002 !
 C         -0.9209550125        1.3816157761       -0.4485889688
 C         -0.4735135166       -0.0000608454       -0.0000969532
 C         -0.9207459869       -1.0793711564       -0.9724658353
 C         -0.9206296501       -0.3023813893        1.4208574961
 Cl         1.3614364953        0.0000722325        0.0001124974
 H         -2.0072106260        1.4196080201       -0.4612126086
 H         -0.5515368267        2.1442050499        0.2321431168
 H         -0.5511960241        1.5992455472       -1.4472348358
 H         -0.5516517936       -0.8708152249       -1.9733622444
 H         -0.5504815624       -2.0529198921       -0.6617188539
 H         -2.0070254939       -1.1097382348       -0.9987494662
 H         -0.5512977348       -1.2732511461        1.7409969873
 H         -2.0069165388       -0.3102916766        1.4601890092
 H         -0.5506656189        0.4537716797        2.1084984024
  14
  -17.7217083600000       3.691412999846360E-002 !
 C         -0.9209097493        1.3815373757       -0.4486325628
 C         -0.4735138648       -0.0000965910       -0.0000207912
 C         -0.9207538216       -1.0792999005       -0.9724565535
 C         -0.9206831702       -0.3024209665        1.4209239319
 Cl         1.3614383687        0.0001057165        0.0000758162
 H         -2.0071817484        1.4193672432       -0.4613042779
 H         -0.5514340796        2.1441695920        0.2321093989
 H         -0.5512331542        1.5990572841       -1.4473202540
 H         -2.0070158473       -1.1096273815       -0.9987752054
 H         -0.5516081397       -0.8706938641       -1.9732972759
 H         -0.5504768351       -2.0528313079       -0.6617452798
 H         -0.5506008470        0.4537884321        2.1084647826
 H         -0.5513033950       -1.2732456153        1.7411313322
 H         -2.0069981698       -0.3103653233        1.4602861541
  14
  -17.7217083600000       3.691412999846360E-002 !
 C         -0.9209008716        1.3816412401       -0.4485079245
 C         -0.4734983205       -0.0000741248        0.0000106960
 C         -0.9206860702       -1.0794174974       -0.9723788985
 C         -0.9208200891       -0.3024038561        1.4209117899
 Cl         1.3614692075        0.0000968691       -0.0000148907
 H         -0.5511777025        1.5993092469       -1.4471962892
 H         -2.0071536967        1.4196432617       -0.4610822363
 H         -0.5515496329        2.1442465338        0.2322672619
 H         -0.5505037619       -2.0530024618       -0.6616235577
 H         -2.0069592476       -1.1097850493       -0.9987873089
 H         -0.5515182183       -0.8709232113       -1.9732585512
 H         -0.5514893079       -1.2732776183        1.7410493713
 H         -2.0071035052       -0.3103490467        1.4601439973
 H         -0.5509486621        0.4537606375        2.1085861091
  14
  -17.7217083600000       3.691412999846360E-002 !
 C         -0.9208767770        1.3816465692       -0.4484975286
 C         -0.4735121091       -0.0000548321        0.0000346906
 C         -0.9206355583       -1.0794056979       -0.9723398249
 C         -0.9208387446       -0.3024152965        1.4209194116
 Cl         1.3614467297        0.0000907744       -0.0000453585
 H         -0.5515672170        2.1442680202        0.2323095748
 H         -0.5509828661        1.5992541472       -1.4471382458
 H         -2.0071623856        1.4195574132       -0.4612144155
 H         -2.0069067917       -1.1097825516       -0.9986541633
 H         -0.5515820981       -0.8708266147       -1.9732311162
 H         -0.5503574271       -2.0529932491       -0.6616835948
 H         -0.5515891651       -1.2733340153        1.7409916885
 H         -2.0071282732       -0.3102677176        1.4602060785
 H         -0.5508392992        0.4536635579        2.1086184278
  14
  -17.7217083600000       3.691412999846360E-002 !
 C         -0.9208749488        1.3816351224       -0.4485597286
 C         -0.4734990869       -0.0000682542        0.0000076207
 C         -0.9207186511       -1.0794061958       -0.9723578635
 C         -0.9207917617       -0.3024611150        1.4208963085
 Cl         1.3614584727        0.0001167802        0.0000051185
 H         -0.5510546992        1.5992949017       -1.4472026005
 H         -2.0071489312        1.4196218677       -0.4612586801
 H         -0.5515465261        2.1442763876        0.2321942023
 H         -0.5516994918       -0.8709246464       -1.9732957613
 H         -0.5504881347       -2.0529762856       -0.6616405380
 H         -2.0069852809       -1.1098089141       -0.9986369505
 H         -2.0070813756       -0.3102920528        1.4602553847
 H         -0.5507591363        0.4536293006        2.1085348469
 H         -0.5515116576       -1.2733480360        1.7410328676
  14
  -17.7217083600000       3.691412999846360E-002 !
 C         -0.9208711940        1.3816446543       -0.4485390999
 C         -0.4735239806       -0.0000672230       -0.0000133367
 C         -0.9206802617       -1.0794164250       -0.9723921544
 C         -0.9207564663       -0.3024218433        1.4209096904
 Cl         1.3614304712        0.0001019391        0.0000102592
 H         -0.5509890596        1.5992766473       -1.4471916635
 H         -2.0071644749        1.4195918979       -0.4612054856
 H         -0.5515136624        2.1442233573        0.2322897346
 H         -0.5516415365       -0.8708230730       -1.9732864798
 H         -0.5503900924       -2.0530131564       -0.6617401984
 H         -2.0069570287       -1.1097647600       -0.9987123375
 H         -0.5514836681       -1.2733114397        1.7410166743
 H         -2.0070415797       -0.3102895488        1.4602751224
 H         -0.5507353617        0.4536326681        2.1086096602
  14
  -17.7217083600000       3.691412999846360E-002 !
 C         -0.9208594079        1.3816352512       -0.4485634354
 C         -0.4735289438       -0.0000696009       -0.0000550400
 C         -0.9206939559       -1.0794039177       -0.9723921410
 C         -0.9206921429       -0.3024328704        1.4208765377
 Cl         1.3614114389        0.0001059990        0.0000470811
 H         -0.5510658724        1.5993187279       -1.4472190281
 H         -2.0071585667        1.4196122580       -0.4611482369
 H         -0.5514862028        2.1441955056        0.2322649844
 H         -0.5516564887       -0.8709231649       -1.9733035842
 H         -0.5504694884       -2.0530100411       -0.6617245309
 H         -2.0069679479       -1.1097240822       -0.9987050052
 H         -0.5507241190        0.4536791165        2.1085480063
 H         -0.5514196275       -1.2733187200        1.7410598441
 H         -2.0069833205       -0.3103270604        1.4601692346
  14
  -17.7217083500000       3.691373937707863E-002 !
 C         -0.9208669671        1.3816692697       -0.4484953453
 C         -0.4735215617       -0.0000357279        0.0001117627
 C         -0.9205504914       -1.0793905705       -0.9723097337
 C         -0.9208974205       -0.3024301834        1.4209742194
 Cl         1.3614350157        0.0000642156       -0.0001117927
 H         -0.5510048306        1.5993589435       -1.4471342395
 H         -2.0071444359        1.4196887019       -0.4611729059
 H         -0.5514676600        2.1442696493        0.2323094766
 H         -2.0068445890       -1.1097476503       -0.9986914887
 H         -0.5514560304       -0.8707222447       -1.9731486955
 H         -0.5503282483       -2.0529411133       -0.6615928589
 H         -0.5509551884        0.4536836316        2.1086447600
 H         -0.5516316893       -1.2732854199        1.7411865575
 H         -2.0071895616       -0.3103323518        1.4601842782
  14
  -17.7217083500000       3.691373937707863E-002 !
 C         -0.9209879162        1.3815400816       -0.4485728636
 C         -0.4734637496       -0.0000887320       -0.0000065117
 C         -0.9207718204       -1.0793131716       -0.9724729531
 C         -0.9207676248       -0.3023590967        1.4209258872
 Cl         1.3615095106        0.0000859919        0.0000520208
 H         -0.5516304494        2.1441519338        0.2321894773
 H         -0.5511745371        1.5991274433       -1.4472486510
 H         -2.0072794566        1.4194560410       -0.4611946225
 H         -0.5505465698       -2.0529138082       -0.6618499397
 H         -2.0070549075       -1.1096652222       -0.9987854483
 H         -0.5517357125       -0.8707789988       -1.9733912382
 H         -0.5514903865       -1.2732414727        1.7410674580
 H         -2.0070625803       -0.3102524396        1.4602447868
 H         -0.5508248201        0.4537243669        2.1086451036
  14
  -17.7217083500000       3.691373937707863E-002 !
 C         -0.9208542495        1.3816107562       -0.4485527738
 C         -0.4735190144       -0.0000648460        0.0000583401
 C         -0.9206499948       -1.0793647973       -0.9723591083
 C         -0.9208170760       -0.3024448017        1.4209528309
 Cl         1.3614331323        0.0001056506       -0.0000369449
 H         -0.5514966222        2.1442064342        0.2322555281
 H         -0.5509686163        1.5991990809       -1.4472083121
 H         -2.0071425883        1.4195260894       -0.4612405062
 H         -2.0069295687       -1.1097501259       -0.9987166367
 H         -0.5515383046       -0.8707963675       -1.9732291004
 H         -0.5503492315       -2.0529292143       -0.6616836982
 H         -2.0071061526       -0.3103222746        1.4602406926
 H         -0.5508313689        0.4536430077        2.1086500417
 H         -0.5515471336       -1.2733505987        1.7410483414
  14
  -17.7217083500000       3.691373937707863E-002 !
 C         -0.9209090736        1.3816666886       -0.4484885255
 C         -0.4735065809       -0.0000602358       -0.0000090581
 C         -0.9206498616       -1.0794288686       -0.9723765044
 C         -0.9207985343       -0.3023834306        1.4208971001
 Cl         1.3614510728        0.0000757150       -0.0000142973
 H         -0.5512053386        1.5993395822       -1.4471949468
 H         -2.0071837228        1.4196200770       -0.4610086431
 H         -0.5515363175        2.1443001795        0.2322603085
 H         -2.0069315795       -1.1097442121       -0.9987578180
 H         -0.5514752299       -0.8709452355       -1.9732632645
 H         -0.5504628733       -2.0530103942       -0.6615940713
 H         -0.5514451168       -1.2732371895        1.7410729395
 H         -2.0070760873       -0.3103367830        1.4601709353
 H         -0.5509417534        0.4538036928        2.1085432338
  14
  -17.7217083500000       3.691373937707863E-002 !
 C         -0.9209355295        1.3817414896       -0.4485441440
 C         -0.4735213683        0.0000252327       -0.0000464055
 C         -0.9206403451       -1.0794286280       -0.9723155549
 C         -0.9207264872       -0.3024455488        1.4208290280
 Cl         1.3614254153        0.0000451195        0.0000243123
 H         -2.0072321471        1.4196862934       -0.4611269540
 H         -0.5514658408        2.1443702232        0.2321768733
 H         -0.5511645237        1.5992934383       -1.4472486136
 H         -0.5503918965       -2.0530105210       -0.6615153485
 H         -2.0069430087       -1.1097305746       -0.9986780141
 H         -0.5514456127       -0.8708916866       -1.9731984988
 H         -0.5513547466       -1.2732667308        1.7409770546
 H         -2.0069601980       -0.3104237746        1.4601789286
 H         -0.5508780381        0.4536667563        2.1084978730
  14
  -17.7217083500000       3.691373937707863E-002 !
 C         -0.9209240652        1.3816817372       -0.4486102078
 C         -0.4735144364       -0.0000047582        0.0000097987
 C         -0.9206694262       -1.0793642591       -0.9723418336
 C         -0.9207629172       -0.3024827487        1.4209140734
 Cl         1.3614484979        0.0000667123        0.0000087194
 H         -2.0072380266        1.4196299336       -0.4611502447
 H         -0.5514602237        2.1442683632        0.2321698352
 H         -0.5511656991        1.5992881473       -1.4473338515
 H         -0.5514942384       -0.8707959966       -1.9732147402
 H         -0.5504594080       -2.0529556527       -0.6615614257
 H         -2.0069555464       -1.1096565101       -0.9987218041
 H         -2.0070680445       -0.3104464156        1.4601883162
 H         -0.5508531769        0.4536927349        2.1085695211
 H         -0.5513921236       -1.2733450322        1.7410833670
  14
  -17.7217083400000       3.691334875982717E-002 !
 C         -0.9209411266        1.3816619726       -0.4485407689
 C         -0.4735236765       -0.0000139427        0.0000323167
 C         -0.9205889483       -1.0793467624       -0.9723726461
 C         -0.9207662141       -0.3023900801        1.4209328604
 Cl         1.3614261795        0.0000315706       -0.0000153014
 H         -2.0072120558        1.4196149014       -0.4612398106
 H         -0.5516377600        2.1442901582        0.2322361757
 H         -0.5511064725        1.5993074138       -1.4471849606
 H         -2.0068649515       -1.1097227428       -0.9987013370
 H         -0.5515096539       -0.8707285181       -1.9732462130
 H         -0.5502555924       -2.0529096474       -0.6616955782
 H         -2.0070554686       -0.3102990243        1.4601653777
 H         -0.5507922187        0.4537145331        2.1086432792
 H         -0.5514735784       -1.2733192262        1.7409444694
  14
  -17.7217083300000       3.691295814670918E-002 !
 C         -0.9210072009        1.3816742701       -0.4484065218
 C         -0.4735235207        0.0000069102       -0.0000578096
 C         -0.9205271194       -1.0793840442       -0.9724034924
 C         -0.9207458566       -0.3022437563        1.4208672315
 Cl         1.3614147896       -0.0000236626       -0.0000094299
 H         -2.0072720714        1.4195975715       -0.4608081029
 H         -0.5515211591        2.1442965726        0.2322097017
 H         -0.5513023903        1.5992040601       -1.4470871648
 H         -0.5504075503       -2.0529582379       -0.6615495401
 H         -2.0067611622       -1.1096030607       -0.9989311286
 H         -0.5513081548       -0.8709483748       -1.9732400954
 H         -0.5510145818        0.4540986963        2.1084721822
 H         -0.5510845950       -1.2729350731        1.7410871249
 H         -2.0070293134       -0.3105559351        1.4601857657
  14
  -17.7217083300000       3.691295814670918E-002 !
 C         -0.9209565870        1.3817785555       -0.4485873390
 C         -0.4735385254        0.0000708529       -0.0000344693
 C         -0.9205905091       -1.0793975117       -0.9723091574
 C         -0.9206942371       -0.3024660077        1.4208599809
 Cl         1.3614071854        0.0000093574        0.0000270726
 H         -0.5511717526        1.5994167566       -1.4472668107
 H         -2.0072451712        1.4196963534       -0.4612152018
 H         -0.5516034139        2.1444153954        0.2321760256
 H         -0.5502794828       -2.0529703556       -0.6616138392
 H         -2.0068687860       -1.1097894891       -0.9986776641
 H         -0.5514782220       -0.8708078347       -1.9731692633
 H         -0.5507226317        0.4536405944        2.1085401742
 H         -0.5513778014       -1.2733606708        1.7409412487
 H         -2.0069703176       -0.3104017348        1.4601789497
  14
  -17.7217083300000       3.691295814670918E-002 !
 C         -0.9208319996        1.3815967624       -0.4484352759
 C         -0.4735085882       -0.0001700819        0.0000444288
 C         -0.9207278915       -1.0794750481       -0.9723926977
 C         -0.9209674021       -0.3023914219        1.4209835184
 Cl         1.3615033366        0.0001697211       -0.0000868413
 H         -0.5512281160        2.1441322476        0.2323724730
 H         -0.5508814336        1.5992322570       -1.4471862379
 H         -2.0069908345        1.4195569391       -0.4607542522
 H         -2.0069757170       -1.1099084951       -0.9989922735
 H         -0.5513609088       -0.8710554658       -1.9732144294
 H         -0.5503951462       -2.0530138230       -0.6616511327
 H         -0.5512121558        0.4538343181        2.1087612818
 H         -0.5516996708       -1.2732165714        1.7410840677
 H         -2.0073047870       -0.3102905349        1.4602521189
  14
  -17.7217083000000       3.691178633229437E-002 !
 C         -0.9210823521        1.3814586195       -0.4479364121
 C         -0.4734299985       -0.0004014038       -0.0004366367
 C         -0.9209242232       -1.0797276449       -0.9728189672
 C         -0.9206751209       -0.3017158684        1.4205933415
 Cl         1.3615499859        0.0001180279        0.0001998597
 H         -0.5513317885        2.1438030662        0.2329649911
 H         -0.5514922240        1.5992083724       -1.4465872248
 H         -2.0073970757        1.4194849071       -0.4602376254
 H         -0.5508398820       -2.0533415976       -0.6619724176
 H         -2.0072341276       -1.1100735970       -0.9991202915
 H         -0.5518087884       -0.8713127209       -1.9737904124
 H         -2.0069755134       -0.3096328103        1.4600253668
 H         -0.5505089192        0.4546929999        2.1079225734
 H         -0.5511978780       -1.2723769254        1.7408991218
  14
  -17.7217082800000       3.691100514339730E-002 !
 C         -0.9206213705        1.3815114336       -0.4484839209
 C         -0.4735282164       -0.0002487812        0.0000588463
 C         -0.9207884031       -1.0795157444       -0.9724084587
 C         -0.9208766380       -0.3024806304        1.4209792451
 Cl         1.3614231078        0.0002870060       -0.0000538680
 H         -0.5507718256        1.5990809833       -1.4471391984
 H         -2.0068813621        1.4195434566       -0.4611427620
 H         -0.5511485650        2.1440341588        0.2323320926
 H         -2.0070607715       -1.1098231372       -0.9988023847
 H         -0.5516731312       -0.8710307787       -1.9733005855
 H         -0.5506757758       -2.0531417327       -0.6617503730
 H         -2.0071871388       -0.3102823704        1.4602672901
 H         -0.5508364760        0.4536891760        2.1085962552
 H         -0.5516282676       -1.2734216792        1.7410980791
  14
  -17.7217082800000       3.691100514339730E-002 !
 C         -0.9207335779        1.3811491929       -0.4489450278
 C         -0.4735917017       -0.0002327010        0.0005431589
 C         -0.9204914625       -1.0788065092       -0.9726866328
 C         -0.9208669400       -0.3024826766        1.4216178786
 Cl         1.3613391492        0.0001206921       -0.0001873716
 H         -0.5511296006        2.1433527782        0.2320506220
 H         -0.5505963472        1.5988820887       -1.4474779734
 H         -2.0070421243        1.4191353794       -0.4617747996
 H         -0.5511373342       -0.8696883771       -1.9734039530
 H         -0.5499199322       -2.0524727643       -0.6623107480
 H         -2.0068014502       -1.1090066069       -0.9991641765
 H         -0.5509707301        0.4535490458        2.1094166447
 H         -0.5517324230       -1.2733041337        1.7420280647
 H         -2.0071406055       -0.3102515285        1.4609187448
  14
  -17.7217082500000       3.690983339084248E-002 !
 C         -0.9206572612        1.3807522835       -0.4483329816
 C         -0.4732712007       -0.0008807487       -0.0001168794
 C         -0.9216124022       -1.0794542712       -0.9729084989
 C         -0.9209897864       -0.3021337627        1.4208956133
 Cl         1.3617652432        0.0006441691        0.0001782659
 H         -2.0070467653        1.4184603693       -0.4604611695
 H         -0.5508826157        2.1430602708        0.2327107663
 H         -0.5512184525        1.5983381988       -1.4472262993
 H         -0.5518022185       -2.0531420501       -0.6622744364
 H         -2.0079357615       -1.1096608985       -0.9993866923
 H         -0.5523656968       -0.8709179954       -1.9737821902
 H         -2.0073959058       -0.3097475680        1.4600023533
 H         -0.5509262835        0.4543690680        2.1082392452
 H         -0.5517915510       -1.2729631638        1.7414223035
  14
  -17.7217082400000       3.690944281506251E-002 !
 C         -0.9211100686        1.3815371348       -0.4485089168
 C         -0.4734735226       -0.0001349485       -0.0000985220
 C         -0.9207912397       -1.0793144474       -0.9726258327
 C         -0.9205738164       -0.3021616075        1.4208274183
 Cl         1.3614850090        0.0000252234        0.0001889273
 H         -0.5514685955        2.1444197417        0.2321420412
 H         -0.5513810406        1.5987722296       -1.4472755574
 H         -2.0075069052        1.4193181856       -0.4613961188
 H         -0.5510490674       -2.0531701698       -0.6624517491
 H         -2.0069882673       -1.1094138718       -0.9990515578
 H         -0.5516720217       -0.8709095480       -1.9734473526
 H         -0.5502571798        0.4537917632        2.1082807007
 H         -0.5513424555       -1.2728631890        1.7411731436
 H         -2.0067780775       -0.3099521134        1.4602173845
  14
  -17.7217082100000       3.690827111210435E-002 !
 C         -0.9204424205        1.3813349718       -0.4474112032
 C         -0.4735212634       -0.0008707425       -0.0004105493
 C         -0.9209480538       -1.0802672427       -0.9728671659
 C         -0.9209541413       -0.3015880848        1.4206463109
 Cl         1.3614248725        0.0004957221       -0.0000123067
 H         -0.5506184221        2.1436928248        0.2334754510
 H         -0.5506263688        1.5988365967       -1.4460099555
 H         -2.0067272132        1.4195230717       -0.4598299374
 H         -0.5515573804       -0.8718826518       -1.9737972392
 H         -0.5510486554       -2.0540552712       -0.6622261377
 H         -2.0073454449       -1.1104011919       -0.9990926523
 H         -2.0073669870       -0.3092447808        1.4598318686
 H         -0.5505892970        0.4550510733        2.1077509702
 H         -0.5514349030       -1.2723795339        1.7408382214
  14
  -17.7174752500000       4.185910872934111E-004 !
 C         -0.9383350233        1.3973291128       -0.4540106948
 C         -0.4737278467        0.0093362665       -0.0031472261
 C         -0.9157943384       -1.0771187135       -0.9710637957
 C         -0.9152830153       -0.3017023965        1.4184414155
 Cl         1.3643594757       -0.0113719076        0.0040078225
 H         -1.5275987113        1.3221924304       -1.3633872192
 H         -1.5454033678        1.8625111896        0.3173308994
 H         -0.0937451136        2.0499972448       -0.6547976075
 H         -0.5454797204       -0.8715611019       -1.9723434304
 H         -0.5417833249       -2.0480219915       -0.6556321139
 H         -2.0022512935       -1.1117717479       -0.9961756970
 H         -0.5455983945        0.4532138706        2.1079022005
 H         -0.5402803881       -1.2723155781        1.7335753445
 H         -2.0017130972       -0.3160484787        1.4591011234
  14
  -17.7174749800000       4.184715076255792E-004 !
 C         -0.9382634884        1.3973191617       -0.4540015676
 C         -0.4737294187        0.0093184643       -0.0030976214
 C         -0.9158153804       -1.0771479978       -0.9710138620
 C         -0.9153395874       -0.3017560414        1.4184480149
 Cl         1.3643614015       -0.0113222528        0.0039782887
 H         -1.5413242330        1.3201719526       -1.3541137040
 H         -1.5315279703        1.8696260416        0.3237079955
 H         -0.0936120126        2.0447076681       -0.6709506953
 H         -0.5403862483       -2.0478183707       -0.6565369456
 H         -2.0022550403       -1.1130021189       -0.9948256728
 H         -0.5469151682       -0.8706623057       -1.9726213204
 H         -0.5442444837        0.4522141510        2.1081858608
 H         -0.5417750132       -1.2731232271        1.7329652282
 H         -2.0017898063       -0.3143455846        1.4594280512
  14
  -17.7174749700000       4.184670794063087E-004 !
 C         -0.9380976525        1.3973610234       -0.4540236175
 C         -0.4737686602        0.0093073844       -0.0030416533
 C         -0.9157779336       -1.0772118027       -0.9709009600
 C         -0.9154135191       -0.3019013183        1.4184837801
 Cl         1.3643130089       -0.0112538741        0.0038969514
 H         -1.5319715594        1.3216357007       -1.3603404775
 H         -1.5404731009        1.8650998080        0.3194325428
 H         -0.0933265838        2.0480938323       -0.6602350757
 H         -0.5413085305       -2.0480406656       -0.6557560841
 H         -2.0022284620       -1.1122408389       -0.9956307221
 H         -0.5458727226       -0.8713351298       -1.9722601504
 H         -2.0018546249       -0.3156396845        1.4592410941
 H         -0.5452537300        0.4526885352        2.1080339824
 H         -0.5409122723       -1.2727738378        1.7334389058
  14
  -17.7174749600000       4.184626512323242E-004 !
 C         -0.9382722216        1.3973177812       -0.4540181473
 C         -0.4737284898        0.0093305673       -0.0030787235
 C         -0.9157863754       -1.0771180974       -0.9710010514
 C         -0.9153609700       -0.3017670453        1.4184723178
 Cl         1.3643617494       -0.0113373176        0.0039543307
 H         -1.5320447457        1.3214956037       -1.3603958495
 H         -1.5408416611        1.8648738787        0.3194033797
 H         -0.0936141529        2.0482375167       -0.6601064235
 H         -0.5458865650       -0.8712582520       -1.9723711499
 H         -0.5413394465       -2.0479496369       -0.6558585609
 H         -2.0022391970       -1.1121345834       -0.9957261755
 H         -0.5408368011       -1.2726241818        1.7334311675
 H         -2.0018012388       -0.3155358483        1.4592059540
 H         -0.5452362374        0.4528406472        2.1080292732
  14
  -17.7174749600000       4.184626512323242E-004 !
 C         -0.9383332775        1.3973516325       -0.4539614242
 C         -0.4737275219        0.0093539823       -0.0031004097
 C         -0.9157285878       -1.0771263662       -0.9710227519
 C         -0.9153545433       -0.3016881487        1.4184618811
 Cl         1.3643616186       -0.0113887722        0.0039495053
 H         -1.5321714795        1.3215437669       -1.3602960701
 H         -1.5408596096        1.8648780669        0.3195127316
 H         -0.0937114700        2.0483038766       -0.6600867256
 H         -2.0021772130       -1.1121535365       -0.9957363666
 H         -0.5458493436       -0.8712790822       -1.9724032832
 H         -0.5412756504       -2.0479575126       -0.6558814530
 H         -0.5452301203        0.4529149883        2.1080289773
 H         -0.5408164463       -1.2725426199        1.7333957001
 H         -2.0017932833       -0.3154769586        1.4592132775
  14
  -17.7174749400000       4.184537950249301E-004 !
 C         -0.9380360860        1.3973655072       -0.4540222861
 C         -0.4737679993        0.0092985672       -0.0030111724
 C         -0.9157914422       -1.0772399851       -0.9708367279
 C         -0.9154741464       -0.3019664720        1.4184827491
 Cl         1.3643164978       -0.0112143511        0.0038610127
 H         -1.5326706424        1.3215509735       -1.3598319061
 H         -1.5396293178        1.8655425941        0.3197742960
 H         -0.0932309186        2.0477676057       -0.6611336684
 H         -0.5459419901       -0.8713020094       -1.9722014823
 H         -0.5412561310       -2.0480637033       -0.6557463479
 H         -2.0022433013       -1.1123199957       -0.9955107449
 H         -2.0019201222       -0.3156025453        1.4592506609
 H         -0.5452364263        0.4525694314        2.1080437627
 H         -0.5410535505       -1.2728809569        1.7334113533
  14
  -17.7174749300000       4.184493669930924E-004 !
 C         -0.9381418061        1.3973422369       -0.4540258644
 C         -0.4737510836        0.0092952386       -0.0030918422
 C         -0.9158391917       -1.0772103965       -0.9709407203
 C         -0.9153696213       -0.3018696021        1.4184430846
 Cl         1.3643356616       -0.0112547596        0.0039497367
 H         -1.5329910653        1.3214576313       -1.3596888022
 H         -1.5395725490        1.8655301301        0.3198941136
 H         -0.0933995467        2.0477535443       -0.6613626168
 H         -0.5412771587       -2.0480255251       -0.6558704966
 H         -2.0022917526       -1.1123197693       -0.9955626635
 H         -0.5460524347       -0.8712852324       -1.9723327642
 H         -0.5409625059       -1.2727926618        1.7333520378
 H         -2.0018115880       -0.3154857163        1.4592110860
 H         -0.5451162024        0.4526603664        2.1080110242
  14
  -17.7174748800000       4.184272275304566E-004 !
 C         -0.9381887875        1.3973864349       -0.4539524207
 C         -0.4737887923        0.0093066812       -0.0031278197
 C         -0.9157201908       -1.0772304924       -0.9710423780
 C         -0.9152854205       -0.3017268334        1.4184716593
 Cl         1.3642823760       -0.0113276843        0.0039622207
 H         -1.5350261837        1.3212507400       -1.3582827070
 H         -1.5376384674        1.8665474651        0.3209166907
 H         -0.0934530060        2.0470716599       -0.6635736593
 H         -2.0021590119       -1.1125296540       -0.9954824082
 H         -0.5461521552       -0.8711946770       -1.9724985604
 H         -0.5409648163       -2.0480176286       -0.6561111473
 H         -0.5410703088       -1.2727527827        1.7332699349
 H         -2.0017222972       -0.3151124439        1.4593081420
 H         -0.5448265048        0.4526703128        2.1080899385
