  9
  -24.0806820900000       0.133103858646170      !
 C          0.9816849783        0.8041823528        0.0874601052
 C         -0.3437135404        0.0447744917        0.0006778101
 F         -1.3995144105        0.8645631252        0.1534434567
 F         -0.4565812646       -0.8969532678        0.9570517333
 F         -0.5182086834       -0.5882071781       -1.1689062528
 O          2.0768579306       -0.0426326493       -0.0609326217
 H          1.0071680768        1.5147939792       -0.7424386326
 H          0.9824504506        1.3474661438        1.0395490251
 H          2.1941531675       -0.6043311057        0.7208079572
  9
  -24.0806704000000       0.131467466486318      !
 C          1.1568859754        0.1815740553       -0.4957171223
 C         -0.3030555158       -0.1007349589       -0.1354157116
 F         -0.9590017232        0.9814611929        0.3091947793
 F         -0.4205317075       -1.0328687879        0.8296129136
 F         -0.9978234388       -0.5628248802       -1.1908932964
 O          1.8810443820        0.6572430353        0.5943519965
 H          1.5710815337       -0.7408772056       -0.9191615407
 H          1.1594569338        0.9688764884       -1.2537511115
 H          2.0467873503       -0.0464392976        1.2409479726
  9
  -24.0806703600000       0.131461901876327      !
 C          1.1590301680        0.1730883497       -0.4942496521
 C         -0.2963358272       -0.1255242032       -0.1286449538
 F         -0.9476952267        0.9675698362        0.3129214298
 F         -0.4234230006       -1.0502706674        0.8345289723
 F         -0.9937494045       -0.5767878002       -1.1869943682
 O          1.8843631011        0.6432946686        0.5972579380
 H          1.6174824151       -0.7687467488       -0.8061593457
 H          1.1442753231        0.8739890111       -1.3369552115
 H          1.6218595834        1.5472542864        0.8304612339
  9
  -24.0806678300000       0.131110418452572      !
 C          0.9818978851        0.8025172933        0.0987327032
 C         -0.3430114192        0.0406652233        0.0278822415
 F         -1.3990123299        0.8624481250        0.1680983080
 F         -0.4651784115       -0.9022709891        0.9738926411
 F         -0.5091636084       -0.5880149446       -1.1516748263
 O          2.0772009331       -0.0440485161       -0.0502163652
 H          0.9420863638        1.5939098640       -0.6587005288
 H          1.0501540491        1.2482396526        1.0942897930
 H          2.1572766460       -0.3564643901       -0.9647161018
  9
  -24.0806461500000       0.128136767933091      !
 C          1.1806350891        0.0380919069        0.4718590100
 C         -0.2909553608       -0.1581092642        0.1025823158
 F         -0.9574988799        1.0099108925        0.0234223399
 F         -0.9407229705       -0.9007913746        1.0168709540
 F         -0.4654271998       -0.7681664850       -1.0790599796
 O          1.8591364958        0.7935463881       -0.4807127392
 H          1.2073034863        0.4828154461        1.4735011178
 H          1.6477570228       -0.9496481335        0.4937092777
 H          1.5844581169        1.7229251492       -0.4510896947
  9
  -24.0806453800000       0.128032403334098      !
 C          1.1797793541        0.0418509326        0.4737143617
 C         -0.2970654696       -0.1364587941        0.1151215044
 F         -0.9675432741        1.0222627760        0.0319582664
 F         -0.9436999324       -0.8882268053        1.0244963815
 F         -0.4649721456       -0.7527386427       -1.0705848764
 O          1.8557595690        0.8094422491       -0.4710059586
 H          1.2229483062        0.5833255668        1.4220248234
 H          1.6060904868       -0.9599551396        0.6007776356
 H          1.9839476185        0.3171801805       -1.2966538682
  9
  -24.0801131200000       7.289708096654376E-002 !
 C          0.9638707691        0.8244973866        0.0989910224
 C         -0.3352443994        0.0388341325        0.0140657208
 F         -1.4065925625        0.8439198442        0.1570637961
 F         -0.4440257570       -0.8994406513        0.9657116853
 F         -0.4938712173       -0.5883659230       -1.1602799607
 O          2.0111543666       -0.0891853415       -0.0638673886
 H          0.9356560698        1.5778644776       -0.6981973800
 H          0.9796779912        1.3118412755        1.0818716843
 H          2.8607592274        0.3748563832       -0.0101694665
  9
  -24.0801002500000       7.191102773632191E-002 !
 C          1.1736130438        0.0297759749        0.4896500715
 C         -0.2867462632       -0.1451908756        0.1039400055
 F         -0.9496245525        1.0170111066        0.0167953499
 F         -0.9489402150       -0.8874823034        1.0132746185
 F         -0.4481561995       -0.7660645007       -1.0734330823
 O          1.7739542537        0.8111879151       -0.5038838842
 H          1.1889109719        0.5151916305        1.4734123173
 H          1.6096865585       -0.9750059668        0.5546767727
 H          2.7074958987        0.9567242771       -0.2857063474
  9
  -24.0800998300000       7.187907456855867E-002 !
 C          1.1489349072        0.1794684168       -0.5157058076
 C         -0.2923225979       -0.1109497003       -0.1277856939
 F         -0.9431983811        0.9714684586        0.3223168349
 F         -0.4007344174       -1.0460987555        0.8268467401
 F         -1.0020546329       -0.5648441453       -1.1798163773
 O          1.8011881640        0.6437054364        0.6319043440
 H          1.5753257570       -0.7594860452       -0.8903565924
 H          1.1200887554        0.9300001850       -1.3155294660
 H          2.7250747785        0.8485230684        0.4211256964
