  12
  -27.2524786900000       7.242835578339618E-002 !
 C         -1.6553116112        1.2398455223       -0.0112629908
 C         -0.9507902485       -0.0224145859        0.4734616694
 H         -0.9392927483       -0.0768724805        1.5678419371
 C          0.5227381726        0.0093896517        0.0312934480
 F          1.1818776551        1.0794350789        0.5106903820
 F          1.2107607092       -1.0700758048        0.4407486675
 F          0.6586907261        0.0525668210       -1.3072091530
 O         -1.5438733077       -1.2087733679        0.0343995810
 H         -2.6957459882        1.2023047577        0.2959755080
 H         -1.6026432133        1.3089518668       -1.0958619146
 H         -1.1870877425        2.1186809646        0.4219338252
 H         -1.7568570635       -1.1519330821       -0.9106195370
  12
  -27.2524611300000       7.109492641082844E-002 !
 C         -1.4498752811        0.5303925315        1.3763613974
 C         -0.9909457875       -0.3257163759        0.2010234496
 H         -1.1099536414       -1.3934746818        0.4165225015
 C          0.5118698485       -0.1022468279       -0.0416570684
 F          0.8001040207        1.1773563463       -0.3443963984
 F          1.2591113901       -0.4120125814        1.0329931216
 F          0.9896778899       -0.8416732457       -1.0572121266
 O         -1.6945011927       -0.0916162775       -0.9829956979
 H         -2.5141684063        0.3797618027        1.5269932854
 H         -1.2603026682        1.5825071665        1.1748072610
 H         -0.9176585529        0.2423456249        2.2779405702
 H         -1.7826579276        0.8612724466       -1.1447939889
  12
  -27.2524596000000       7.097991414556307E-002 !
 C         -1.8025344249        0.0476245687       -1.0128036862
 C         -0.9847327806        0.3138745446        0.2462463655
 H         -1.0881985596        1.3541178573        0.5748406021
 C          0.5091313987        0.1069531248       -0.0586820930
 F          1.2950218803        0.3535161349        1.0033955060
 F          0.7860341920       -1.1530114639       -0.4431772772
 F          0.9499770771        0.9070202028       -1.0459721659
 O         -1.3501330026       -0.4736307616        1.3409663007
 H         -1.5148298527        0.7408043694       -1.7976562889
 H         -2.8548958093        0.1846726842       -0.7852625743
 H         -1.6389132251       -0.9696717409       -1.3621255038
 H         -1.4566193300       -1.4006494133        1.0740558606
  12
  -27.2524595000000       7.097240348496962E-002 !
 C         -1.8023057952        0.0468107984       -1.0129171404
 C         -0.9847452330        0.3139534642        0.2461052127
 H         -1.0884199740        1.3543900272        0.5740148153
 C          0.5091220459        0.1069325882       -0.0587296195
 F          1.2948671418        0.3534033755        1.0034542496
 F          0.7860632711       -1.1529930153       -0.4433592121
 F          0.9500473526        0.9071727805       -1.0458541739
 O         -1.3502524469       -0.4729737635        1.3412197754
 H         -2.8547383139        0.1840116021       -0.7855494976
 H         -1.6387290263       -0.9707321987       -1.3614705434
 H         -1.5143907045        0.7392817082       -1.7982429996
 H         -1.4567034050       -1.4002031252        1.0747750841
  12
  -27.2524583100000       7.088308760125062E-002 !
 C         -1.8010148754        0.0441966008       -1.0139543487
 C         -0.9848906286        0.3135726218        0.2455885569
 H         -1.0890602133        1.3547314512        0.5707227997
 C          0.5090417211        0.1069306119       -0.0588689992
 F          1.2941936159        0.3527051708        1.0038977758
 F          0.7862094057       -1.1526972089       -0.4444230035
 F          0.9501711239        0.9080371657       -1.0452535716
 O         -1.3507875842       -0.4707771494        1.3427078136
 H         -1.6346137674       -0.9730736092       -1.3620177558
 H         -1.5146976773        0.7371455975       -1.7995581548
 H         -2.8539604079        0.1788150934       -0.7873906952
 H         -1.4572402435       -1.3987332457        1.0786980033
  12
  -27.2524577800000       7.084334444468827E-002 !
 C         -1.4495155205        0.5236960933        1.3793807396
 C         -0.9913559602       -0.3258919431        0.1990076748
 H         -1.1110344581       -1.3948093420        0.4085753803
 C          0.5117678328       -0.1023288835       -0.0420999939
 F          0.7999456380        1.1769066622       -0.3461735749
 F          1.2581824358       -0.4104255307        1.0336440776
 F          0.9907539757       -0.8431690935       -1.0560553307
 O         -1.6942656588       -0.0847994631       -0.9841741658
 H         -1.2627183626        1.5772296556        1.1826836148
 H         -0.9144340576        0.2325725818        2.2783334621
 H         -2.5130147270        0.3698262994        1.5325121460
 H         -1.7852498900        0.8690097157       -1.1391857090
  12
  -27.2524570600000       7.078938943714354E-002 !
 C         -1.4496293069        0.5247648536        1.3789388610
 C         -0.9913322740       -0.3258420916        0.1993688703
 H         -1.1110492399       -1.3945465177        0.4099360950
 C          0.5117687986       -0.1023407259       -0.0420160655
 F          0.7999501064        1.1769654899       -0.3459287797
 F          1.2583283602       -0.4106842443        1.0335530502
 F          0.9905516251       -0.8429973062       -1.0562147344
 O         -1.6941710578       -0.0857895765       -0.9840662204
 H         -0.9143777080        0.2345367320        2.2781022004
 H         -2.5131032295        0.3708105015        1.5322213500
 H         -1.2631124600        1.5781614411        1.1811918271
 H         -1.7842690174        0.8679244141       -1.1401784764
  12
  -27.2524502700000       7.028258048077517E-002 !
 C         -1.6539796871        1.2423931224       -0.0025191058
 C         -0.9509526294       -0.0242999222        0.4731608208
 H         -0.9414058917       -0.0867638426        1.5671071429
 C          0.5226078123        0.0087155294        0.0319367459
 F          1.1797074930        1.0823033762        0.5059208725
 F          1.2132695664       -1.0673203669        0.4461484505
 F          0.6573345167        0.0453879732       -1.3068951167
 O         -1.5441490357       -1.2072680264        0.0251017546
 H         -1.5944834435        1.3241819424       -1.0857323937
 H         -1.1892594947        2.1166956918        0.4433098144
 H         -2.6962138694        1.2007393254        0.2978675019
 H         -1.7490914984       -1.1481627089       -0.9217673415
  12
  -27.2524500100000       7.026324624793381E-002 !
 C         -1.6536990564        1.2425982507       -0.0021249294
 C         -0.9510068744       -0.0244361971        0.4731808464
 H         -0.9417225963       -0.0872911995        1.5671004683
 C          0.5225525523        0.0087344323        0.0319849869
 F          1.1796408048        1.0824376110        0.5056852993
 F          1.2133019694       -1.0671141324        0.4464407363
 F          0.6570954494        0.0450345367       -1.3068502951
 O         -1.5440344948       -1.2073427515        0.0245812877
 H         -1.1887494783        2.1167998167        0.4438381147
 H         -2.6958702551        1.2010594292        0.2984044802
 H         -1.5944070079        1.3245264875       -1.0853335285
 H         -1.7484098117       -1.1480192861       -0.9223875647
  12
  -27.2516802000000       3.111343993870480E-002 !
 C         -1.4500933721        0.5574230034        1.3694021012
 C         -0.9845575589       -0.3289755458        0.2176231686
 H         -1.0784839778       -1.3950515011        0.4779887314
 C          0.5034736001       -0.0970090955       -0.0432093518
 F          0.7948807913        1.1741397932       -0.3512447207
 F          1.2563199470       -0.4047537921        1.0306984513
 F          0.9751867442       -0.8506616212       -1.0502505528
 O         -1.6182408074       -0.0513764096       -1.0035491551
 H         -0.8443459062        0.3674284466        2.2506878011
 H         -2.4876147090        0.3405085784        1.6022664124
 H         -1.3554146317        1.6035688992        1.0882484374
 H         -2.5786577297       -0.1352304008       -0.8967315657
  12
  -27.2516799300000       3.110455170654465E-002 !
 C         -1.4501680669        0.5570325985        1.3696440190
 C         -0.9845756738       -0.3289419745        0.2175311754
 H         -1.0784631551       -1.3951378520        0.4774662831
 C          0.5034865591       -0.0970301554       -0.0432563211
 F          0.7948448553        1.1741004501       -0.3513995148
 F          1.2562186255       -0.4046841365        1.0307488757
 F          0.9753433640       -0.8507670799       -1.0501590089
 O         -1.6181915101       -0.0509603635       -1.0036303085
 H         -2.4878152604        0.3404339028        1.6021995277
 H         -1.3551111252        1.6032649773        1.0889122059
 H         -0.8447135647        0.3665460509        2.2510094787
 H         -2.5786098073       -0.1345676750       -0.8968245787
  12
  -27.2516798600000       3.110224776447131E-002 !
 C         -1.4501169869        0.5567691625        1.3697312057
 C         -0.9845735399       -0.3289908368        0.2174279313
 H         -1.0784478364       -1.3952419435        0.4770473877
 C          0.5035047633       -0.0970645110       -0.0432508892
 F          0.7947340817        1.1740715285       -0.3514382966
 F          1.2562806649       -0.4046333809        1.0307621992
 F          0.9754207859       -0.8507738123       -1.0501574733
 O         -1.6183031077       -0.0506569055       -1.0035905355
 H         -1.3551484448        1.6030728387        1.0892018029
 H         -0.8443766586        0.3663310310        2.2508310510
 H         -2.4876575161        0.3399535486        1.6025752028
 H         -2.5787027829       -0.1345468507       -0.8969463315
  12
  -27.2516792000000       3.108053327104758E-002 !
 C         -1.6527970071        1.2479800407       -0.0169968294
 C         -0.9412810114       -0.0035797560        0.4891771405
 H         -0.9018555804       -0.0164815352        1.5899095450
 C          0.5140744906        0.0054112587        0.0222495806
 F          1.1868277100        1.0741852333        0.4907158502
 F          1.1981170944       -1.0718308036        0.4420260835
 F          0.6406853547        0.0398137296       -1.3114083049
 O         -1.4771143587       -1.2015637431       -0.0085060286
 H         -2.6665360803        1.2743412121        0.3695459281
 H         -1.6822774538        1.2389521518       -1.1039540517
 H         -1.1244628905        2.1354184240        0.3191083992
 H         -2.4218313025       -1.2470900053        0.2061071780
  12
  -27.2516684200000       3.072800159571554E-002 !
 C         -1.6529740537        1.2472002562       -0.0194117689
 C         -0.9412099219       -0.0030699151        0.4893825062
 H         -0.9016702962       -0.0139504931        1.5901173573
 C          0.5141232887        0.0054668434        0.0223932067
 F          1.1873990314        1.0734494161        0.4920703669
 F          1.1977871391       -1.0725925079        0.4405684895
 F          0.6405460494        0.0415568350       -1.3111570565
 O         -1.4770330757       -1.2018703788       -0.0062100721
 H         -1.1269741169        2.1356304569        0.3178608315
 H         -2.6680573928        1.2719620051        0.3638587303
 H         -1.6790896190        1.2372891729       -1.1064959100
 H         -2.4237047182       -1.2429981750        0.2007566821
  12
  -27.2516677900000       3.070752320843538E-002 !
 C         -1.6528678291        1.2470188570       -0.0185892470
 C         -0.9410435873       -0.0034061844        0.4898388800
 H         -0.9010648654       -0.0151799863        1.5904840572
 C          0.5141670560        0.0055327061        0.0226324104
 F          1.1874923101        1.0739317377        0.4913235756
 F          1.1980579970       -1.0722549463        0.4412348826
 F          0.6400828053        0.0406882848       -1.3109033308
 O         -1.4771914769       -1.2012448930       -0.0077730832
 H         -1.6803657949        1.2358107278       -1.1057216378
 H         -1.1266692497        2.1358677128        0.3173026483
 H         -2.6676102562        1.2716911577        0.3656311567
 H         -2.4231729507       -1.2438841266        0.2018548531
  12
  -27.2516677600000       3.070654838766389E-002 !
 C         -1.8114638130        0.0535153244       -1.0025723863
 C         -0.9746840748        0.3428793802        0.2403675887
 H         -1.0452471377        1.4046671951        0.5247041846
 C          0.5024802630        0.0921196130       -0.0618174195
 F          1.2944191776        0.3327065633        0.9962621629
 F          0.7566499071       -1.1655519482       -0.4482685059
 F          0.9565246312        0.8872131157       -1.0498479799
 O         -1.2711290570       -0.4902829407        1.3302400002
 H         -2.8520210807        0.2920325203       -0.8071032796
 H         -1.7266572261       -0.9983720355       -1.2649169504
 H         -1.4612698063        0.6589672900       -1.8334863509
 H         -2.2145981560       -0.4208125690        1.5438844778
  12
  -27.2516676900000       3.070427392616918E-002 !
 C         -1.8116410683        0.0532263031       -1.0025498475
 C         -0.9746806188        0.3429254993        0.2402396898
 H         -1.0452751418        1.4048177064        0.5242396095
 C          0.5025066751        0.0921323418       -0.0618419530
 F          1.2944089727        0.3325807850        0.9963022234
 F          0.7565620177       -1.1655480507       -0.4483424825
 F          0.9566566705        0.8872222287       -1.0498397492
 O         -1.2710059107       -0.4899041310        1.3303973393
 H         -1.7272343468       -0.9987973721       -1.2643553739
 H         -1.4614151479        0.6581382392       -1.8338162000
 H         -2.8521189059        0.2921396040       -0.8070970580
 H         -2.2145881483       -0.4209604561        1.5436455693
  12
  -27.2516674400000       3.069615222434446E-002 !
 C         -1.8112183941        0.0527508444       -1.0028232335
 C         -0.9747573941        0.3428589249        0.2401737879
 H         -1.0453423770        1.4048426764        0.5237472010
 C          0.5024279470        0.0921091952       -0.0618326281
 F          1.2942429600        0.3324028794        0.9963646025
 F          0.7566754335       -1.1654468596       -0.4485708560
 F          0.9565571173        0.8874385869       -1.0496124853
 O         -1.2711116213       -0.4895544592        1.3306689441
 H         -1.4604477782        0.6571680751       -1.8343241986
 H         -2.8516466349        0.2921454578       -0.8079129159
 H         -1.7270539055       -0.9994215170       -1.2641591758
 H         -2.2147788157       -0.4208447986        1.5437313781
  12
  -27.2505238800000       9.152508723136705E-003 !
 C         -1.8158084144       -0.0203158660       -0.9904731348
 C         -0.9781180269        0.3386339170        0.2317893214
 H         -1.0656404317        1.4114956363        0.4562227447
 C          0.5085053637        0.0942913704       -0.0762627998
 F          1.2917898033        0.3558937330        0.9915281292
 F          0.7815472051       -1.1670404497       -0.4366275899
 F          0.9610402439        0.8825648943       -1.0679170541
 O         -1.3752821726       -0.4541730490        1.3128994624
 H         -1.7060793863       -1.0797044372       -1.2063486188
 H         -1.4986955658        0.5644798734       -1.8481686815
 H         -2.8579249713        0.1855870541       -0.7707515974
 H         -1.0021346124       -0.1354489323        2.1479502919
  12
  -27.2505234900000       9.148732298813227E-003 !
 C         -1.8156557295       -0.0195625242       -0.9905190892
 C         -0.9780829975        0.3385425905        0.2320765688
 H         -1.0655875898        1.4112161632        0.4573957264
 C          0.5084766823        0.0943355799       -0.0761802648
 F          1.2919558349        0.3560749563        0.9914358005
 F          0.7814585099       -1.1670213508       -0.4364650510
 F          0.9608126009        0.8825629624       -1.0679807607
 O         -1.3752543744       -0.4550234929        1.3125995778
 H         -2.8578352644        0.1853481510       -0.7702567310
 H         -1.7052859094       -1.0785735375       -1.2078601782
 H         -1.4991601597        0.5666823927       -1.8474868319
 H         -1.0021092607       -0.1369194356        2.1478909719
  12
  -27.2505234400000       9.148248254546772E-003 !
 C         -1.8155042092       -0.0198284703       -0.9905936133
 C         -0.9781011029        0.3385247480        0.2320306930
 H         -1.0655849210        1.4112497442        0.4571151575
 C          0.5084586265        0.0943480295       -0.0761742893
 F          1.2919249609        0.3560158900        0.9914605143
 F          0.7814296909       -1.1669722986       -0.4365487887
 F          0.9607969139        0.8826332736       -1.0679133579
 O         -1.3752962102       -0.4548546021        1.3127048035
 H         -1.4986442524        0.5660839562       -1.8476813647
 H         -2.8576743769        0.1854287748       -0.7705836411
 H         -1.7053368689       -1.0789384728       -1.2075518771
 H         -1.0020275054       -0.1366543476        2.1479199584
  12
  -27.2505216800000       9.131226203360170E-003 !
 C         -1.6762623882        1.2112774382       -0.0377188490
 C         -0.9403175060       -0.0148943750        0.4906866819
 H         -0.9007776464        0.0022698492        1.5894947943
 C          0.5219911517        0.0215590875        0.0170698083
 F          1.1894469697        1.0849824961        0.4995243804
 F          1.2094544022       -1.0652289027        0.4280222851
 F          0.6526671457        0.0613465155       -1.3157897839
 O         -1.5647909270       -1.1698626973        0.0102626903
 H         -1.1855197406        2.1188113267        0.2995867636
 H         -2.6972587782        1.1879386084        0.3278357951
 H         -1.6927701242        1.1834462158       -1.1239978466
 H         -1.2440214663       -1.9645863431        0.4610452245
  12
  -27.2505213600000       9.128134689567590E-003 !
 C         -1.4712496722        0.5313286289        1.3531608159
 C         -0.9820610231       -0.3446671548        0.2052087740
 H         -1.0643017971       -1.4088706390        0.4694482299
 C          0.5145788487       -0.0858737868       -0.0348985049
 F          0.7981606162        1.1921901280       -0.3203682228
 F          1.2682049581       -0.4172051988        1.0289214814
 F          0.9904481547       -0.8142897975       -1.0670715914
 O         -1.7071616286       -0.0367355423       -0.9499551370
 H         -0.8941892628        0.3328149525        2.2508027413
 H         -2.5185428356        0.3142238310        1.5341183420
 H         -1.3732620089        1.5776918922        1.0762955873
 H         -1.5662246200       -0.6928942202       -1.6479247543
  12
  -27.2505200300000       9.115296796802780E-003 !
 C         -1.6770388297        1.2103248963       -0.0406449472
 C         -0.9402615340       -0.0141026989        0.4905650802
 H         -0.9004360484        0.0061939717        1.5893295586
 C          0.5220908237        0.0218212040        0.0169179757
 F          1.1904474050        1.0839615057        0.5011606686
 F          1.2085735509       -1.0661627990        0.4261631191
 F          0.6530267767        0.0636917261       -1.3158557804
 O         -1.5647525017       -1.1704266524        0.0133671498
 H         -2.6977920437        1.1880285889        0.3256909139
 H         -1.6941479850        1.1790834891       -1.1268062545
 H         -1.1861498983        2.1188939699        0.2935754980
 H         -1.2440668185       -1.9639321282        0.4664677207
  12
  -27.2505197900000       9.112982108310248E-003 !
 C         -1.6775009962        1.2096891294       -0.0428137650
 C         -0.9401342883       -0.0134992375        0.4908188062
 H         -0.9000492514        0.0076803049        1.5896911002
 C          0.5221153856        0.0219013617        0.0169478908
 F          1.1909553660        1.0832542280        0.5022838964
 F          1.2079758080       -1.0669208735        0.4249279312
 F          0.6527907183        0.0652011173       -1.3157956130
 O         -1.5641515934       -1.1704987574        0.0152037986
 H         -1.6940261324        1.1773428310       -1.1289684243
 H         -1.1874819320        2.1191017902        0.2903491930
 H         -2.6985419075        1.1870482877        0.3228145683
 H         -1.2421920569       -1.9631610631        0.4686574224
  12
  -27.2505168300000       9.084482566008491E-003 !
 C         -1.4715065083        0.5310479449        1.3531956751
 C         -0.9820395548       -0.3446421652        0.2051333458
 H         -1.0642700685       -1.4089696040        0.4690054200
 C          0.5146060549       -0.0859383433       -0.0349374580
 F          0.7981923283        1.1921024988       -0.3203328394
 F          1.2681374837       -0.4172475657        1.0289426493
 F          0.9906003804       -0.8142331677       -1.0671431283
 O         -1.7071753447       -0.0364320320       -0.9498164469
 H         -2.5187325461        0.3138287189        1.5343296116
 H         -1.3737649924        1.5773874194        1.0762916629
 H         -0.8942783800        0.3326384931        2.2507495729
 H         -1.5649715262       -0.6915379329       -1.6486075440
  12
  -27.2505149200000       9.066139987396622E-003 !
 C         -1.4713053636        0.5320191422        1.3527975023
 C         -0.9820549093       -0.3446446078        0.2054331184
 H         -1.0641250256       -1.4086978415        0.4704028981
 C          0.5145919743       -0.0858513827       -0.0348790917
 F          0.7982578962        1.1922257587       -0.3201609635
 F          1.2682829234       -0.4173620148        1.0288561513
 F          0.9903374478       -0.8140845916       -1.0672412661
 O         -1.7072226466       -0.0375009616       -0.9498122722
 H         -1.3737869860        1.5781548574        1.0749476139
 H         -0.8939263766        0.3344377414        2.2504354700
 H         -2.5184827508        0.3148093249        1.5342253600
 H         -1.5660129257       -0.6939360487       -1.6475913273
  12
  -27.2481312200000       7.276955998338258E-004 !
 C         -1.4602918087        0.5456330610        1.3833133333
 C         -0.9846801128       -0.3269022914        0.2112638812
 H         -1.0749682143       -1.3975985253        0.4457745291
 C          0.5036422911       -0.0966208514       -0.0442888372
 F          0.7988704180        1.1720078081       -0.3587480979
 F          1.2502340425       -0.3980642626        1.0356843059
 F          0.9797205293       -0.8572050841       -1.0443372310
 O         -1.6123079810       -0.0330263693       -1.0099861733
 H         -0.6717974841        1.2168439322        1.7125345259
 H         -1.7657818666       -0.0698560121        2.2221260785
 H         -2.2986823633        1.1543723653        1.0583748811
 H         -2.5524288771       -0.2652236738       -0.9553061585
  12
  -27.2480999800000       7.040327125780140E-004 !
 C         -1.8234443735        0.0791838104       -1.0064263154
 C         -0.9722581570        0.3408457550        0.2457695322
 H         -1.0277326436        1.3946423803        0.5558456025
 C          0.5030438327        0.0897779957       -0.0607982286
 F          1.2981130576        0.3318394001        0.9948449423
 F          0.7581764273       -1.1675030059       -0.4475446129
 F          0.9526592660        0.8846406186       -1.0510353087
 O         -1.2665249056       -0.5089404870        1.3241547714
 H         -1.2141869173       -0.3160745115       -1.8147017125
 H         -2.3003686322        0.9920638913       -1.3453879291
 H         -2.5840360398       -0.6598125446       -0.7733046633
 H         -2.1649545693       -0.3303034020        1.6420806767
