  14
    -0.393798 !GC
 C          0.0000000000        0.0000000000        0.0000000000
 C          1.5270564011        0.0000000000        0.0000000000
 C          2.0602570579        1.4309428853        0.0000000000
 C          2.0602788294       -0.7672056576        1.2078180896
 H         -0.3839830378        0.5327306908       -0.8667753187
 H         -0.3831025451       -1.0172942581       -0.0249289203
 H         -0.3768287218        0.4866255521        0.8968332172
 H          1.8747252219       -0.5004991259       -0.9112460047
 H          1.7344749410        1.9552644856        0.8959580953
 H          1.6960981228        1.9752116447       -0.8683996950
 H          3.1473622540        1.4339346387       -0.0235238070
 H          3.1478837792       -0.7863393179        1.1919033338
 H          1.6983118181       -1.7930951871        1.1927549724
 H          1.7388443861       -0.3034870919        2.1368761317
  14
    -0.391473 !GC
 C          0.0000000000        0.0000000000        0.0000000000
 C          1.5270798679        0.0000000000        0.0000000000
 C          2.0614286318        1.4306901726        0.0000000000
 C          2.0596342850       -0.7684120119        1.2072673356
 H         -0.3768582226       -1.0201617298       -0.0260960930
 H         -0.3897552018        0.4877481849        0.8898917765
 H         -0.3773873080        0.5268123575       -0.8735309388
 H          1.8743860617       -0.5005976537       -0.9112333332
 H          1.7333809173        1.9557376562        0.8947797246
 H          1.7000446589        1.9749070814       -0.8699121846
 H          3.1488936656        1.4326322994       -0.0204964392
 H          1.7000237670       -1.7947085099        1.1971498609
 H          1.7282762499       -0.2968717571        2.1300305656
 H          3.1469379351       -0.7851409564        1.2015829893
  14
    -0.390555 !GC
 C          0.0000000000        0.0000000000        0.0000000000
 C          1.5269861268        0.0000000000        0.0000000000
 C          2.0588016537        1.4315740000        0.0000000000
 C          2.0590782873       -0.7673422981        1.2083285342
 H         -0.3839136891        0.5296373924       -0.8687611551
 H         -0.3830989422       -1.0173282823       -0.0216589489
 H         -0.3771182848        0.4899974664        0.8949125121
 H          1.8750357225       -0.5003649740       -0.9112262295
 H          1.6902382198        1.9647948508       -0.8746028167
 H          3.1459886374        1.4429985933       -0.0229203397
 H          1.7281865494        1.9618445591        0.8899419070
 H          1.7021513934       -1.7943696937        1.1971484441
 H          1.7254564583       -0.2975487029        2.1310115407
 H          3.1462194666       -0.7817979080        1.2047851243
  14
    -0.390057 !GC
 C          0.0000000000        0.0000000000        0.0000000000
 C          1.5271069936        0.0000000000        0.0000000000
 C          2.0611450848        1.4307090718        0.0000000000
 C          2.0605224543       -0.7683873632        1.2069706737
 H         -0.3839467381        0.4828571181        0.8955852780
 H         -0.3889464148        0.5269694894       -0.8674010206
 H         -0.3707207544       -1.0228852418       -0.0246797109
 H          1.8745454624       -0.5003938499       -0.9113241353
 H          1.7367463273        1.9550168730        0.8965324295
 H          1.6964264539        1.9755282469       -0.8678333831
 H          3.1482458056        1.4329945309       -0.0248457817
 H          1.6991167969       -1.7938867322        1.1974897133
 H          1.7316976425       -0.2965370331        2.1306915900
 H          3.1479213454       -0.7874747589        1.1991277261
  14
    -0.389902 !GC
 C          0.0000000000        0.0000000000        0.0000000000
 C          1.5269983649        0.0000000000        0.0000000000
 C          2.0603588319        1.4308691886        0.0000000000
 C          2.0599371161       -0.7681580630        1.2074262554
 H         -0.3838363285        0.5325432833       -0.8668715669
 H         -0.3828999442       -1.0172894272       -0.0253787473
 H         -0.3770973472        0.4864322927        0.8969624044
 H          1.8745265073       -0.5003263939       -0.9113573312
 H          3.1476571621        1.4353144089       -0.0233550808
 H          1.7331732803        1.9550865190        0.8956852445
 H          1.6962920495        1.9746632775       -0.8682626692
 H          1.6973035733       -1.7933636871        1.1995880966
 H          1.7317805396       -0.2946264717        2.1303750829
 H          3.1472257244       -0.7882351554        1.1997835452
  14
    -0.389133 !GC
 C          0.0000000000        0.0000000000        0.0000000000
 C          1.5269866315        0.0000000000        0.0000000000
 C          2.0597094346        1.4311943573        0.0000000000
 C          2.0596744514       -0.7669574719        1.2082826622
 H         -0.3836422918        0.5309156086       -0.8681284109
 H         -0.3829877652       -1.0174287722       -0.0232308204
 H         -0.3772867024        0.4886855604        0.8956518152
 H          1.8747636574       -0.5006283029       -0.9111568217
 H          1.7336987806        1.9550986962        0.8962599655
 H          1.6955412297        1.9758252186       -0.8682827130
 H          3.1468225200        1.4344879497       -0.0232041989
 H          1.7301805905       -0.2925773823        2.1302116791
 H          3.1470878517       -0.7866859530        1.2016876845
 H          1.6976409262       -1.7924140412        1.2013903379
  14
    -0.270706 !GC
 C          0.0000000000        0.0000000000        0.0000000000
 C          1.5271088860        0.0000000000        0.0000000000
 C          2.0616826303        1.4305448421        0.0000000000
 C          2.0590431251       -0.7677713995        1.2079679082
 H         -0.3775551407       -1.0200024134       -0.0253585842
 H         -0.3888709168        0.4877079122        0.8901314634
 H         -0.3773863100        0.5275688916       -0.8733138787
 H          1.8747247692       -0.5008398742       -0.9110328170
 H          3.1495650667        1.4267005559       -0.0242013417
 H          1.7397543959        1.9670171554        0.8892686319
 H          1.7003615188        1.9670221372       -0.8750052665
 H          3.1467215018       -0.7851029538        1.1949409914
 H          1.6987032763       -1.7940119740        1.1899490217
 H          1.7342930139       -0.3065986056        2.1371341492
  14
    -0.270371 !GC
 C          0.0000000000        0.0000000000        0.0000000000
 C          1.5270796156        0.0000000000        0.0000000000
 C          2.0600645763        1.4311528902        0.0000000000
 C          2.0592564288       -0.7677533937        1.2079701154
 H         -0.3843188908        0.4841354483        0.8946569164
 H         -0.3892752637        0.5252326544       -0.8682194436
 H         -0.3703955305       -1.0228791605       -0.0228548939
 H          1.8748327091       -0.5003289151       -0.9113124781
 H          1.6917688724        1.9652581383       -0.8741917239
 H          3.1471171042        1.4415708093       -0.0234969736
 H          1.7303463352        1.9612930667        0.8904640936
 H          1.7316094819       -0.3009218960        2.1337276538
 H          3.1472919245       -0.7745686681        1.1926316316
 H          1.7102211600       -1.7969380668        1.2006221537
  14
    -0.210115 !GC
 C          0.0000000000        0.0000000000        0.0000000000
 C          1.5270505975        0.0000000000        0.0000000000
 C          2.0598104138        1.4312979709        0.0000000000
 C          2.0598475831       -0.7683939535        1.2072694640
 H         -0.3836235107        0.4835787366        0.8951653695
 H         -0.3901593942        0.5250049552       -0.8681337202
 H         -0.3703979663       -1.0226908429       -0.0220885982
 H          1.8744939971       -0.5000866021       -0.9115128942
 H          3.1481283130        1.4229925786       -0.0211813346
 H          1.7371661898        1.9597187850        0.8945918856
 H          1.7034399173        1.9779129431       -0.8694312744
 H          3.1466229653       -0.7889578691        1.2067705284
 H          1.6962116837       -1.7938909876        1.1842704598
 H          1.7254322157       -0.3068546937        2.1331727610
  14
    -0.210061 !GC
 C          0.0000000000        0.0000000000        0.0000000000
 C          1.5271064889        0.0000000000        0.0000000000
 C          2.0602376501        1.4310895483        0.0000000000
 C          2.0599264443       -0.7687723527        1.2070163255
 H         -0.3842180893        0.4840470111        0.8947992735
 H         -0.3890567142        0.5255609319       -0.8680964731
 H         -0.3705524095       -1.0228999509       -0.0231696327
 H          1.8748175292       -0.5001305370       -0.9113935525
 H          1.6916310039        1.9653751873       -0.8738561071
 H          3.1473372582        1.4410153445       -0.0239505275
 H          1.7314369936        1.9611531460        0.8907630965
 H          3.1465242449       -0.7890122418        1.2063977124
 H          1.6967607926       -1.7944761370        1.1841173877
 H          1.7258445504       -0.3073895099        2.1331900755
  14
    -0.209881 !GC
 C          0.0000000000        0.0000000000        0.0000000000
 C          1.5270759568        0.0000000000        0.0000000000
 C          2.0620026040        1.4303320979        0.0000000000
 C          2.0592979434       -0.7677319139        1.2078968779
 H         -0.3897488304       -1.0140782375       -0.0281663254
 H         -0.3827267977        0.4899614122        0.8919193275
 H         -0.3714503509        0.5350364925       -0.8717120753
 H          1.8746978531       -0.5004409626       -0.9112518357
 H          3.1492512222        1.4331629834       -0.0237554386
 H          1.7364020852        1.9538428837        0.8964307005
 H          1.6981194998        1.9755861913       -0.8675501405
 H          1.7296780211       -0.2941459630        2.1301470760
 H          3.1466426459       -0.7876766479        1.2014249382
 H          1.6972318580       -1.7930568428        1.2000912467
  14
    -0.209608 !GC
 C          0.0000000000        0.0000000000        0.0000000000
 C          1.5271332360        0.0000000000        0.0000000000
 C          2.0605297696        1.4309435337        0.0000000000
 C          2.0606610603       -0.7676913549        1.2073408636
 H         -0.3772693666       -1.0199235338       -0.0253911744
 H         -0.3893198236        0.4873190265        0.8900057182
 H         -0.3772620340        0.5273211828       -0.8735286254
 H          1.8750462200       -0.5006744065       -0.9110739654
 H          1.6919372347        1.9648739540       -0.8742346911
 H          3.1474760687        1.4409280031       -0.0237465516
 H          1.7314451576        1.9616363622        0.8903287579
 H          1.7354815472       -0.3067875165        2.1364521506
 H          3.1484125635       -0.7840506158        1.1935978251
 H          1.7017084784       -1.7945516421        1.1892604944
  14
    -0.208823 !GC
 C          0.0000000000        0.0000000000        0.0000000000
 C          1.5271144373        0.0000000000        0.0000000000
 C          2.0605735631        1.4308789979        0.0000000000
 C          2.0606512283       -0.7674231610        1.2075700926
 H         -0.3841926588        0.4853378801        0.8940373433
 H         -0.3894057807        0.5243829178       -0.8686131845
 H         -0.3704226555       -1.0231097333       -0.0215871149
 H          1.8745429599       -0.5003788222       -0.9113539339
 H          3.1483740128        1.4283407927       -0.0249830234
 H          1.7386320948        1.9668363384        0.8893960365
 H          1.6981896939        1.9670856932       -0.8745489058
 H          1.7361977842       -0.2986811676        2.1335785494
 H          3.1487059936       -0.7761598809        1.1894687721
 H          1.7094435950       -1.7960673822        1.2023475877
  14
    -0.208796 !GC
 C          0.0000000000        0.0000000000        0.0000000000
 C          1.5270754521        0.0000000000        0.0000000000
 C          2.0589744400        1.4315127088        0.0000000000
 C          2.0610531069       -0.7686650668        1.2066243814
 H         -0.3777905766       -1.0202018294       -0.0257583169
 H         -0.3894199096        0.4879373852        0.8899701349
 H         -0.3760958529        0.5278583990       -0.8738062962
 H          1.8746247195       -0.5001917714       -0.9113928203
 H          1.6891947227        1.9654652314       -0.8736068208
 H          3.1460323228        1.4431119066       -0.0245465502
 H          1.7297874291        1.9609907918        0.8910637677
 H          3.1477536993       -0.7911020879        1.2036199378
 H          1.6959017221       -1.7938241634        1.1846591809
 H          1.7296528240       -0.3058626895        2.1333496985
  14
    -0.000444 !GC
 C          0.0000000000        0.0000000000        0.0000000000
 C          1.5268692974        0.0000000000        0.0000000000
 C          2.0607218135        1.4308954826        0.0000000000
 C          2.0599023875       -0.7685031010        1.2070673457
 H         -0.3838062676        0.5328724317       -0.8668206167
 H         -0.3834032382       -1.0175151589       -0.0237968836
 H         -0.3754990547        0.4877765556        0.8967429980
 H          1.8731296156       -0.5003038220       -0.9117943779
 H          1.6956517783        1.9704933910       -0.8714145395
 H          3.1484344209        1.4272755034       -0.0287860125
 H          1.7426066874        1.9643039515        0.8919731472
 H          3.1477337782       -0.7874547669        1.1903538060
 H          1.6976461838       -1.7944859009        1.1901569067
 H          1.7380458011       -0.3054462425        2.1366476481
  14
    -0.000386 !GC
 C          0.0000000000        0.0000000000        0.0000000000
 C          1.5270801203        0.0000000000        0.0000000000
 C          2.0609720557        1.4307725063        0.0000000000
 C          2.0598525568       -0.7673685460        1.2079243494
 H         -0.3840475648        0.4829457826        0.8954430595
 H         -0.3891649903        0.5266413750       -0.8675245416
 H         -0.3705638623       -1.0228649412       -0.0243649360
 H          1.8745606354       -0.5005922245       -0.9112430136
 H          1.7360612551        1.9552122629        0.8963616869
 H          1.6967654419        1.9757044911       -0.8679119629
 H          3.1481631215        1.4329271310       -0.0239644091
 H          3.1474978718       -0.7861913985        1.1926510858
 H          1.6981531299       -1.7933160774        1.1919514398
 H          1.7376465003       -0.3044187581        2.1371932546
  14
    -0.000382 !GC
 C          0.0000000000        0.0000000000        0.0000000000
 C          1.5269862530        0.0000000000        0.0000000000
 C          2.0599341559        1.4310632946        0.0000000000
 C          2.0594866344       -0.7689619450        1.2071590046
 H         -0.3834687838        0.5295028551       -0.8689338315
 H         -0.3829975181       -1.0174343260       -0.0218403089
 H         -0.3770917076        0.4899620472        0.8952034725
 H          1.8745780665       -0.5000662633       -0.9114315062
 H          3.1473036038        1.4357213143       -0.0202280254
 H          1.7300660504        1.9561903587        0.8942558712
 H          1.6981383854        1.9740812246       -0.8698637095
 H          1.7350345102       -0.3077978419        2.1365254439
 H          3.1471787924       -0.7860349926        1.1933924719
 H          1.7000701304       -1.7956325018        1.1888427950
  14
    -0.000371 !GC
 C          0.0000000000        0.0000000000        0.0000000000
 C          1.5270970265        0.0000000000        0.0000000000
 C          2.0601914614        1.4311854911        0.0000000000
 C          2.0603353398       -0.7678618702        1.2073483623
 H         -0.3831310742        0.4855213743        0.8944709731
 H         -0.3903497078        0.5230358166       -0.8695433887
 H         -0.3702911933       -1.0228867478       -0.0194188552
 H          1.8744722423       -0.5002628265       -0.9114063680
 H          3.1484672944        1.4219009297       -0.0222849190
 H          1.7395447167        1.9590385748        0.8953849930
 H          1.7031251803        1.9788219322       -0.8687264167
 H          1.7024920084       -1.7947631345        1.1964555009
 H          1.7279493160       -0.2975603697        2.1304040607
 H          3.1476386846       -0.7828820838        1.2018572160
  14
    -0.000359 !GC
 C          0.0000000000        0.0000000000        0.0000000000
 C          1.5273532690        0.0000000000        0.0000000000
 C          2.0611305229        1.4307151076        0.0000000000
 C          2.0623957276       -0.7675793466        1.2068316982
 H         -0.3776223401       -1.0200282497       -0.0250380149
 H         -0.3896482493        0.4881073778        0.8896018405
 H         -0.3769498725        0.5270320882       -0.8738726700
 H          1.8749819561       -0.5002644497       -0.9113202099
 H          1.6923617260        1.9648373699       -0.8739460310
 H          3.1481535872        1.4396168250       -0.0248875672
 H          1.7334379312        1.9615280436        0.8908419486
 H          1.7047618448       -1.7944074532        1.1960061142
 H          1.7317697883       -0.2979254648        2.1310631051
 H          3.1497752654       -0.7827974422        1.1989005499
  14
    -0.000352 !GC
 C          0.0000000000        0.0000000000        0.0000000000
 C          1.5270975311        0.0000000000        0.0000000000
 C          2.0603264269        1.4310228409        0.0000000000
 C          2.0607745966       -0.7676917064        1.2072333483
 H         -0.3771472022       -1.0200767249       -0.0255541436
 H         -0.3901282737        0.4885144658        0.8893309145
 H         -0.3768456582        0.5262271376       -0.8740064852
 H          1.8746200338       -0.5005424934       -0.9112194117
 H          1.7324856239        1.9556707970        0.8949634766
 H          1.6984315078        1.9750789985       -0.8695755995
 H          3.1473866724        1.4340001007       -0.0206912740
 H          1.7358288459       -0.3067178546        2.1364989806
 H          3.1484553336       -0.7835833085        1.1931282099
 H          1.7023513538       -1.7945906254        1.1891429846
  14
    -0.000272 !GC
 C          0.0000000000        0.0000000000        0.0000000000
 C          1.5271357593        0.0000000000        0.0000000000
 C          2.0618556320        1.4304813378        0.0000000000
 C          2.0597131466       -0.7687904124        1.2070141948
 H         -0.3774537215       -1.0200812150       -0.0255060711
 H         -0.3886523210        0.4874367348        0.8903537226
 H         -0.3775433472        0.5278509049       -0.8731747544
 H          1.8747095934       -0.5006415388       -0.9111139979
 H          3.1496506769        1.4265611993       -0.0247085338
 H          1.7401493033        1.9665634140        0.8896482110
 H          1.7000185854        1.9674214879       -0.8744205790
 H          1.7002180380       -1.7949262911        1.1962543938
 H          1.7284872664       -0.2980842171        2.1302926596
 H          3.1470722863       -0.7858682880        1.2012280504
  14
    -0.000264 !GC
 C          0.0000000000        0.0000000000        0.0000000000
 C          1.5270511022        0.0000000000        0.0000000000
 C          2.0607179930        1.4309177295        0.0000000000
 C          2.0604435977       -0.7680089819        1.2072236989
 H         -0.3833521210        0.4823881937        0.8959506144
 H         -0.3900492145        0.5264135772       -0.8674392633
 H         -0.3705662744       -1.0226777530       -0.0235983479
 H          1.8742219148       -0.5003499063       -0.9114434296
 H          1.6955014818        1.9701696368       -0.8716219834
 H          3.1485149064        1.4272969638       -0.0288479524
 H          1.7421955439        1.9641699370        0.8920529728
 H          1.6989227007       -1.7936681183        1.1983851389
 H          1.7314867050       -0.2953244682        2.1304288946
 H          3.1477878289       -0.7867478664        1.1994828808
  14
    -0.000263 !GC
 C          0.0000000000        0.0000000000        0.0000000000
 C          1.5271061104        0.0000000000        0.0000000000
 C          2.0596758497        1.4312747451        0.0000000000
 C          2.0598350689       -0.7665303133        1.2084386339
 H         -0.3774099904       -1.0200668013       -0.0252701444
 H         -0.3902394004        0.4888825975        0.8890826072
 H         -0.3767674529        0.5259592465       -0.8742595066
 H          1.8748869517       -0.5009462637       -0.9109104474
 H          1.7309883789        1.9566995683        0.8941784233
 H          1.6973036288        1.9740082615       -0.8700722195
 H          3.1470499163        1.4354206261       -0.0207624644
 H          3.1466129264       -0.7888358051        1.2065438952
 H          1.6945101700       -1.7917002800        1.1888504403
 H          1.7273056960       -0.3013447959        2.1333351670
  14
    -0.000262 !GC
 C          0.0000000000        0.0000000000        0.0000000000
 C          1.5271379041        0.0000000000        0.0000000000
 C          2.0610947160        1.4307151683        0.0000000000
 C          2.0600068962       -0.7684205144        1.2071930086
 H         -0.3840208720        0.4841749050        0.8947420616
 H         -0.3893770011        0.5250549803       -0.8684474157
 H         -0.3700985751       -1.0230952539       -0.0227987106
 H          1.8745738928       -0.5002028925       -0.9114063866
 H          1.7336324236        1.9563704057        0.8945899063
 H          1.6991798307        1.9743309186       -0.8696714979
 H          3.1484727312        1.4330568263       -0.0213062687
 H          1.7351985042       -0.3007571310        2.1336652417
 H          3.1480595868       -0.7767731888        1.1893334230
 H          1.7091056172       -1.7971294104        1.2006404251
  14
    -0.000262 !GC
 C          0.0000000000        0.0000000000        0.0000000000
 C          1.5270558965        0.0000000000        0.0000000000
 C          2.0593494518        1.4313228308        0.0000000000
 C          2.0596827825       -0.7675905718        1.2078640552
 H         -0.3842543714        0.5314540762       -0.8674106668
 H         -0.3832136984       -1.0171963799       -0.0233570281
 H         -0.3766603263        0.4879392081        0.8960968657
 H          1.8749972888       -0.5002357967       -0.9113153998
 H          1.6913522835        1.9648530507       -0.8745081200
 H          3.1464558392        1.4418409406       -0.0228611702
 H          1.7292208238        1.9616736411        0.8900723577
 H          1.7326896999       -0.3004021988        2.1336425202
 H          3.1477297638       -0.7751013096        1.1921568483
 H          1.7099005919       -1.7964382741        1.2008299762
  14
    -0.000257 !GC
 C          0.0000000000        0.0000000000        0.0000000000
 C          1.5270561488        0.0000000000        0.0000000000
 C          2.0604815075        1.4308118749        0.0000000000
 C          2.0600914542       -0.7692095504        1.2066942174
 H         -0.3838096425        0.5313204250       -0.8675834547
 H         -0.3831122172       -1.0173022955       -0.0235385526
 H         -0.3766334958        0.4879031689        0.8963876116
 H          1.8745397629       -0.4999370275       -0.9115205927
 H          3.1477387363        1.4354491472       -0.0200235001
 H          1.7305201743        1.9555995096        0.8943098848
 H          1.6986584139        1.9741137159       -0.8696728362
 H          3.1468300026       -0.7938151701        1.2042830999
 H          1.6929410548       -1.7934410148        1.1843021281
 H          1.7289326778       -0.3064708847        2.1333016808
  14
    -0.000256 !GC
 C          0.0000000000        0.0000000000        0.0000000000
 C          1.5270437845        0.0000000000        0.0000000000
 C          2.0589246579        1.4315167475        0.0000000000
 C          2.0592325311       -0.7683946600        1.2075972507
 H         -0.3838870006        0.5284124195       -0.8694686921
 H         -0.3833112908       -1.0173342170       -0.0198188006
 H         -0.3766545997        0.4914657641        0.8943318940
 H          1.8750489090       -0.4999757826       -0.9113897377
 H          1.6932456193        1.9639327949       -0.8761697646
 H          3.1461604338        1.4423759663       -0.0198073615
 H          1.7262490392        1.9628952792        0.8886733684
 H          3.1459511357       -0.7869985374        1.2096770263
 H          1.6977769759       -1.7944033006        1.1829599522
 H          1.7220871347       -0.3087831239        2.1332993220
