  13
  -14.7608971000000       0.500259257712763      !
 C          0.0052347936        1.2492446106        0.1110357259
 C          1.2271191019        0.3341386430       -0.0870181518
 C          0.6561857364       -1.0472112940        0.0366986683
 C         -0.6649390985       -1.0417241619        0.0367517024
 C         -1.2242847092        0.3443402243       -0.0870485237
 H          0.0088839486        2.0896856565       -0.5800304295
 H          0.0068711126        1.6479699305        1.1256702840
 H          1.6713646396        0.4640643160       -1.0776897537
 H          2.0083516112        0.5217718687        0.6505094764
 H          1.2910046238       -1.9148327135        0.0923037801
 H         -1.3069477554       -1.9040095909        0.0923457100
 H         -1.6674217759        0.4779036531       -1.0777641657
 H         -2.0039536889        0.5384670299        0.6504960992
  13
  -14.7608961200000       0.499740742287237      !
 C          0.0052218550        1.2492220577       -0.1095844088
 C          1.2270530442        0.3340204883        0.0881165131
 C          0.6562129184       -1.0470885825       -0.0386731149
 C         -0.6649319352       -1.0415758156       -0.0386553136
 C         -1.2242296340        0.3442517159        0.0881033254
 H          0.0069082386        1.6481548133       -1.1241176716
 H          0.0087041955        2.0895059238        0.5817077809
 H          2.0090486361        0.5229676260       -0.6481926176
 H          1.6701871202        0.4621571294        1.0795493868
 H          1.2910170873       -1.9145525162       -0.0965219650
 H         -1.3069637381       -1.9036899138       -0.0963976420
 H         -2.0046777685        0.5398821676       -0.6481554581
 H         -1.6661952712        0.4760963294        1.0795471685
