  10
  -13.5047870300000       0.197886938814140      !
 C          1.8653963091       -0.0241842994       -0.2302544502
 C          0.7019200713        0.3077286342        0.2962017656
 C         -0.5411189429       -0.5262868034        0.1890028651
 O         -1.6849307898        0.2311753107       -0.1639922205
 H          2.7368290689        0.5971416978       -0.1203131013
 H          1.9946673252       -0.9412461963       -0.7811390226
 H          0.5767002375        1.2305600875        0.8461447454
 H         -0.7787655360       -0.9540675343        1.1689773062
 H         -0.3913865751       -1.3501378812       -0.5211147404
 H         -1.5369316423        0.6407679243       -1.0274630397
  10
  -13.5047809000000       0.196607453133652      !
 C          1.8690818408        0.0477791987        0.2009582961
 C          0.6974124238        0.1930060774       -0.3882327877
 C         -0.5420283493       -0.5573492077        0.0028829155
 O         -1.6841906761        0.2750394954        0.0984654429
 H          2.7375381204        0.5968029871       -0.1181861584
 H          2.0082551371       -0.6399355387        1.0188197531
 H          0.5623314861        0.8864278336       -1.2071803941
 H         -0.3821430311       -1.1001114362        0.9438188896
 H         -0.7890671226       -1.2850561668       -0.7776942419
 H         -1.5269167864        0.9482833844        0.7746757344
  10
  -13.5045638700000       0.156264344732087      !
 C          1.5022017698        0.3014893707       -0.4911266936
 C          0.8281403619       -0.2222428858        0.5153733205
 C         -0.6646856625       -0.3833439757        0.5603539127
 O         -1.3620713459        0.2177384586       -0.5071243345
 H          2.5738382990        0.3902124409       -0.4725006026
 H          1.0052330698        0.6467753726       -1.3825400379
 H          1.3322073938       -0.5863478840        1.3994869089
 H         -1.0384524225       -0.0030586619        1.5232646985
 H         -0.9119317263       -1.4492228515        0.5090437641
 H         -1.1883985203        1.1690610320       -0.4931544455
  10
  -13.5045534900000       0.154557319607896      !
 C          1.4995277958        0.3633017952       -0.4559782875
 C          0.8305687948       -0.2795832783        0.4825067465
 C         -0.6668738712       -0.3253252683        0.5933707622
 O         -1.3626365152        0.2383601557       -0.4955236453
 H          2.5745534661        0.3654180214       -0.4877991551
 H          0.9931934363        0.9280837320       -1.2211564710
 H          1.3421393470       -0.8273887212        1.2612818465
 H         -0.9790949873        0.2508436523        1.4710930626
 H         -0.9844553427       -1.3671530210        0.7517632836
 H         -1.1358678520       -0.2543665199       -1.2963472595
  10
  -13.5042411000000       0.111051664803154      !
 C          1.8564126391        0.1053852136        0.2415806603
 C          0.7076209235        0.1190698168       -0.4072949015
 C         -0.5423758394       -0.5587947593        0.0708279551
 O         -1.6651028874        0.3031536801        0.1072886653
 H          2.7333502840        0.5946440060       -0.1453480096
 H          1.9663276245       -0.4038287315        1.1841367451
 H          0.6157056430        0.6393755935       -1.3520354770
 H         -0.4170631709       -0.9211876938        1.0931508977
 H         -0.7587342740       -1.4208139533       -0.5801418223
 H         -1.7991128835        0.6837737191       -0.7721180782
  10
  -13.5042205800000       0.108666263607132      !
 C          1.8554217464       -0.0179474360       -0.2793000448
 C          0.7109492096        0.2870272141        0.3020837129
 C         -0.5414876515       -0.5308945210        0.1872719871
 O         -1.6683078546        0.2278554952       -0.2116811767
 H          2.7345402409        0.5905207629       -0.1568296301
 H          1.9598034844       -0.8954158206       -0.8951735364
 H          0.6251083179        1.1753979585        0.9144289506
 H         -0.7468423197       -1.0170923191        1.1543302728
 H         -0.4261075278       -1.3073193294       -0.5716607602
 H         -1.7935917706        0.9568908438        0.4119489906
  10
  -13.5028681500000       2.597532201668541E-002 !
 C          1.8755324311        0.0763484874        0.1901665847
 C          0.6877879823        0.2109492246       -0.3674165730
 C         -0.5288726390       -0.5664956503        0.0328408416
 O         -1.6393126487        0.3129760749        0.0901701346
 H          2.7247195385        0.6458259734       -0.1439465417
 H          2.0478379742       -0.6178446488        0.9959090721
 H          0.5162252690        0.9167657866       -1.1676357608
 H         -0.3670020200       -1.0494582919        1.0050532896
 H         -0.7115196829       -1.3473768016       -0.7218934417
 H         -2.4315732577       -0.1889392815        0.3220062197
  10
  -13.5028596600000       2.574300294473362E-002 !
 C          1.8714353079       -0.0009169676       -0.2345871032
 C          0.6925581649        0.3252263566        0.2590118200
 C         -0.5282023191       -0.5399519589        0.1816820379
 O         -1.6401565443        0.2651163862       -0.1728930775
 H          2.7233207837        0.6488656210       -0.1393996956
 H          2.0338858078       -0.9368950728       -0.7427040924
 H          0.5314976939        1.2698398536        0.7586521079
 H         -0.6986836661       -0.9973808620        1.1688959026
 H         -0.3787071374       -1.3402136493       -0.5543110567
 H         -2.4352380629       -0.2828821098       -0.2027307405
  10
  -13.5027633100000       2.324769034051872E-002 !
 C          1.4812656087        0.3499807824       -0.4891586535
 C          0.8350824903       -0.2481752457        0.4927031089
 C         -0.6566807395       -0.3694617490        0.5836521484
 O         -1.2906651080        0.2440093666       -0.5185703923
 H          2.5549712666        0.4113300686       -0.5093267717
 H          0.9460342008        0.7994234967       -1.3078427164
 H          1.3592299052       -0.7038599891        1.3213831368
 H         -0.9861832587        0.0971592878        1.5249016317
 H         -0.9162594291       -1.4385762730        0.6294350987
 H         -2.2473865019        0.1506969216       -0.4241977097
