  12
        -22.80214876
 C          2.1722668213        0.0615602447       -0.0012562138
 O          0.9893092205       -0.3354914038       -0.6995150234
 S         -0.4021071800       -0.0697155170        0.0377960464
 O         -0.2793904191       -0.4703412168        1.4229785690
 O         -1.3805463230       -0.7753869753       -0.7495518270
 C         -0.6486045989        1.6895755726       -0.0805740473
 H          2.4208642637        1.0903260445       -0.2607769560
 H          2.9657976000       -0.6104135198       -0.3208704310
 H          1.9999352685       -0.0401276274        1.0704291208
 H         -1.6552377766        1.8855796296        0.2605255337
 H          0.0784572863        2.1698974726        0.5584286506
 H         -0.5289328616        1.9550734864       -1.1209030702
