  34
        -38.85496256
 C         -6.7579221775       -0.2507117589        0.0309703825
 C         -5.4628039959        0.5464193213       -0.0710209295
 C         -4.2320818824       -0.3507872304        0.0395199104
 C         -2.9306352593        0.4413522272       -0.0613516883
 C         -1.7009705104       -0.4569966331        0.0494899684
 C         -0.4000476233        0.3365128632       -0.0501498251
 C          0.8300291677       -0.5612485747        0.0588373879
 C          2.1267167871        0.2374640745       -0.0393933531
 C          3.3582352260       -0.6581126294        0.0645937528
 C          4.6535506456        0.1127183026        0.0197092991
 O          4.7013931201        1.3252309443        0.0885073505
 C          5.8864366786       -0.7335735175       -0.1254937523
 H         -6.8090790155       -0.7728498656        0.9837858340
 H         -7.6197076416        0.4074891819       -0.0473486385
 H         -6.8144934733       -0.9882335462       -0.7664853847
 H         -5.4340657271        1.2958117683        0.7232764213
 H         -5.4368936963        1.0765971402       -1.0257734772
 H         -4.2583699699       -0.8811887410        0.9943681754
 H         -4.2607928104       -1.1001827084       -0.7550325554
 H         -2.9045290749        0.9725991045       -1.0158037228
 H         -2.9021875430        1.1913277512        0.7327625236
 H         -1.7291875082       -1.2055701767       -0.7456772210
 H         -1.7278672950       -0.9878438272        1.0039223848
 H         -0.3743559546        0.8698009372       -1.0032845927
 H         -0.3715655059        1.0852023690        0.7449438118
 H          0.8020552392       -1.3068671987       -0.7388641912
 H          0.8028218256       -1.0929418401        1.0125728409
 H          2.1633618960        0.9854876801        0.7555782720
 H          2.1567474678        0.7776261444       -0.9883872377
 H          3.3389474981       -1.2028844820        1.0120881497
 H          3.3634120494       -1.4006893533       -0.7348856750
 H          5.9643996794       -1.0474704945       -1.1646785479
 H          5.8194585703       -1.6229108581        0.4929849190
 H          6.7710026692       -0.1566156731        0.1294307581
