  15
        -26.16686948
 C         -2.5278736970        0.4676637910       -0.1255774768
 C         -2.2138438497       -0.8762503756       -0.2535824711
 C         -0.9059937970       -1.2995139385       -0.1068857195
 C          0.0861208300       -0.3668326564        0.1678344567
 C         -0.2166835110        0.9781307720        0.3063565121
 C         -1.5321157990        1.3871589613        0.1546675467
 O          1.3771665290       -0.8913127856        0.3430101692
 C          2.4707310131       -0.2430843926        0.0204886803
 O          2.5739837550        0.8488381708       -0.4746747217
 H         -3.5481074697        0.7972428277       -0.2417633104
 H         -2.9865513449       -1.5971434019       -0.4679315148
 H         -0.6347957217       -2.3385963774       -0.2002809419
 H          0.5582036689        1.6947099389        0.5253008848
 H         -1.7725586482        2.4331705346        0.2604349097
 H          3.3357057720       -0.8784691494        0.2682791542
  15
        -26.16551631
 C         -2.4747731143        0.3727847909        0.3408832568
 C         -1.9526733578       -0.9013236071        0.4894043319
 C         -0.6505566904       -1.1706655618        0.1027131580
 C          0.1142936265       -0.1501207689       -0.4361657799
 C         -0.3934548610        1.1289809644       -0.5873116176
 C         -1.6968894919        1.3847108695       -0.1964053956
 O          1.4307165549       -0.4290414237       -0.8730340799
 C          2.4218891155       -0.2684257335       -0.0280874175
 O          2.3473868531        0.1011309688        1.1140040380
 H         -3.4889215626        0.5776719762        0.6451587494
 H         -2.5552295849       -1.6899828435        0.9110172954
 H         -0.2255768979       -2.1558395147        0.2136499164
 H          0.2286359141        1.9053089308       -1.0037944425
 H         -2.0996791393        2.3786035310       -0.3097306110
 H          3.3669802364       -0.5287990105       -0.5280917217
  15
        -26.16254674
 C         -2.7144594243        0.1368869523       -0.0871653913
 C         -1.9911696866       -0.9962761152       -0.4179281470
 C         -0.6142287444       -1.0187188914       -0.2638401187
 C          0.0277012737        0.1118284843        0.2183239392
 C         -0.6888359634        1.2493625800        0.5629662548
 C         -2.0635062758        1.2557775021        0.4078692130
 O          1.4112324450        0.1445709972        0.4243255957
 C          2.2290106261       -0.3653663104       -0.4697312951
 O          3.4190441753       -0.4170839230       -0.3072284344
 H         -3.7857902791        0.1458294797       -0.2082776325
 H         -2.4954810501       -1.8731506141       -0.7914408574
 H         -0.0509936906       -1.9099761806       -0.4943840712
 H         -0.1590289883        2.1068767826        0.9444078496
 H         -2.6242213447        2.1376285525        0.6729635815
 H          1.7408172987       -0.7321117614       -1.3920804229
