  8
  -31.5673122700000        1.00000000000000      !
 C         -0.7766254078        0.0000839952        0.0006382968
 C          0.7764669636        0.0004162093       -0.0003493031
 Cl         1.4489768802       -1.4663153507        0.8114696071
 Cl         1.4471445315        0.0301423145       -1.6760384027
 Cl         1.4484730131        1.4365928888        0.8629428924
 Cl        -1.4473029757       -0.0296421100        1.6763273964
 Cl        -1.4483669521       -1.4369277206       -0.8631363419
 Cl        -1.4488708193        1.4659805189       -0.8116630565
