  8
    -0.653243 !GC
 C          0.0000000000        0.0000000000        0.0000000000
 O          1.4374658920        0.0000000000        0.0000000000
 C          2.0923911029        1.1278789461        0.0000000000
 O          1.6402365404        2.2458028398        0.0054290400
 H         -0.3251366050        0.2194061502       -1.0144078639
 H         -0.3343968314        0.7541731403        0.7091136201
 H         -0.3583115398       -0.9860345320        0.2980665599
 H          3.1717329655        0.9155287448       -0.0080233507
  8
    -0.533945 !GC
 C          0.0000000000        0.0000000000        0.0000000000
 O          1.4374768684        0.0000000000        0.0000000000
 C          2.0970688693        1.1253680470        0.0000000000
 O          1.6505472869        2.2457847069        0.0004015761
 H         -0.2881364357        0.7119055889        0.7677338011
 H         -0.4441840947       -0.9808572264        0.1967218652
 H         -0.2844836549        0.3506578496       -0.9875242953
 H          3.1753865317        0.9084844696       -0.0039794964
  8
    -0.519639 !GC
 C          0.0000000000        0.0000000000        0.0000000000
 O          1.4369560565        0.0000000000        0.0000000000
 C          2.0956546612        1.1262725462        0.0000000000
 O          1.6489761121        2.2463965845        0.0021554087
 H         -0.4024780798        0.6444279720        0.7852097002
 H         -0.3262493239       -1.0263088022        0.1522496293
 H         -0.2894365438        0.3740696965       -0.9776009151
 H          3.1737959500        0.9090326047       -0.0080941991
  8
    -0.501491 !GC
 C          0.0000000000        0.0000000000        0.0000000000
 O          1.4370723812        0.0000000000        0.0000000000
 C          2.0960191798        1.1261867014        0.0000000000
 O          1.6495318845        2.2464662364        0.0021911354
 H         -0.3604408964        0.3407519208       -0.9713425895
 H         -0.3694741695        0.6548602191        0.7886332234
 H         -0.2893648630       -1.0349273314        0.1561881017
 H          3.1741505644        0.9087556476       -0.0064884504
  8
    -0.492311 !GC
 C          0.0000000000        0.0000000000        0.0000000000
 O          1.4376185525        0.0000000000        0.0000000000
 C          2.0922170273        1.1281981383        0.0000000000
 O          1.6395398667        2.2459963502        0.0075700846
 H         -0.2793849884        0.7267616907        0.7562371859
 H         -0.3384521996       -1.0008184317        0.2603694491
 H         -0.4001149505        0.2985517793       -0.9718848755
 H          3.1716536337        0.9163113428       -0.0033867294
  8
    -0.444799 !GC
 C          0.0000000000        0.0000000000        0.0000000000
 O          1.4375132041        0.0000000000        0.0000000000
 C          2.0965316008        1.1257745129        0.0000000000
 O          1.6492857140        2.2459182620        0.0025048336
 H         -0.2851148198        0.3990072545       -0.9686493660
 H         -0.4057746131        0.6231995757        0.8007519948
 H         -0.3270083075       -1.0298023626        0.1270615724
 H          3.1749496478        0.9095485711       -0.0009485102
  8
    -0.245209 !GC
 C          0.0000000000        0.0000000000        0.0000000000
 O          1.4371087169        0.0000000000        0.0000000000
 C          2.0954814328        1.1265928437        0.0000000000
 O          1.6482733345        2.2465974975        0.0042929373
 H         -0.3574548297       -1.0255468594        0.0976988399
 H         -0.3303119509        0.4173375182       -0.9487838557
 H         -0.3318429397        0.5967442222        0.8470265614
 H          3.1737198531        0.9098156487       -0.0034561949
  8
    -0.176722 !GC
 C          0.0000000000        0.0000000000        0.0000000000
 O          1.4373605437        0.0000000000        0.0000000000
 C          2.0967044793        1.1254540383        0.0000000000
 O          1.6499916732        2.2457151605        0.0003659377
 H         -0.3308188917       -1.0154062217        0.2074420034
 H         -0.4017785847        0.3462670645       -0.9551785600
 H         -0.2845549722        0.6865858888        0.7917880138
 H          3.1750352980        0.9087596457       -0.0055846740
  8
    -0.112040 !GC
 C          0.0000000000        0.0000000000        0.0000000000
 O          1.4375822168        0.0000000000        0.0000000000
 C          2.0927558007        1.1277939268        0.0000000000
 O          1.6407918347        2.2458741889        0.0054650218
 H         -0.2824090003       -0.9906207525        0.3428079339
 H         -0.3775324347        0.2120251640       -1.0001615513
 H         -0.3582347786        0.7451788767        0.7111022959
 H          3.1720885235        0.9152525734       -0.0064180789
  8
    -0.088517 !GC
 C          0.0000000000        0.0000000000        0.0000000000
 O          1.4363002472        0.0000000000        0.0000000000
 C          2.0731850742        1.1406580027        0.0000000000
 O          1.5932512114        2.2465584263       -0.0044229484
 H         -0.4045847209        1.0067820634        0.1312908043
 H         -0.3622067614       -0.6318614611        0.8105642852
 H         -0.2587682803       -0.3948308986       -0.9750401926
 H          3.1565740881        0.9508942335       -0.0028265743
  8
    -0.067263 !GC
 C          0.0000000000        0.0000000000        0.0000000000
 O          1.4366572961        0.0000000000        0.0000000000
 C          2.0700663202        1.1418783829        0.0000000000
 O          1.5852423369        2.2455585420       -0.0032897979
 H         -0.3725751126       -0.4341894951        0.9279007236
 H         -0.3662563902       -0.5524747035       -0.8649033713
 H         -0.2854764906        1.0456013249       -0.0675982140
 H          3.1544503167        0.9565669889       -0.0073858830
  8
    -0.048748 !GC
 C          0.0000000000        0.0000000000        0.0000000000
 O          1.4369262814        0.0000000000        0.0000000000
 C          2.0702521524        1.1421110430        0.0000000000
 O          1.5850779899        2.2458217964       -0.0010981551
 H         -0.2845442168       -0.4874439854        0.9277585557
 H         -0.4130374516       -0.5304838291       -0.8604265707
 H         -0.3278469204        1.0371996265        0.0122338879
 H          3.1547054584        0.9570790887       -0.0011550367
  8
    -0.036818 !GC
 C          0.0000000000        0.0000000000        0.0000000000
 O          1.4364054694        0.0000000000        0.0000000000
 C          2.0688151651        1.1429949523        0.0000000000
 O          1.5834918077        2.2464089012        0.0006711310
 H         -0.3989952289       -0.5266410180        0.8702520203
 H         -0.2943236067       -0.5023467090       -0.9155613588
 H         -0.3327548058        1.0351844900        0.0373306399
 H          3.1531124239        0.9575963746       -0.0052617210
  8
    -0.026814 !GC
 C          0.0000000000        0.0000000000        0.0000000000
 O          1.4367736209        0.0000000000        0.0000000000
 C          2.0704329076        1.1417981074        0.0000000000
 O          1.5857944524        2.2456403233       -0.0032538644
 H         -0.3302651748        1.0307119745       -0.1122754728
 H         -0.4090545460       -0.4462988682        0.9084585717
 H         -0.2854051043       -0.5739921245       -0.8764825021
 H          3.1548116566        0.9562958046       -0.0057834959
  8
    -0.021641 !GC
 C          0.0000000000        0.0000000000        0.0000000000
 O          1.4367047344        0.0000000000        0.0000000000
 C          2.0742521928        1.1398519425        0.0000000000
 O          1.5942908063        2.2458823185       -0.0062301943
 H         -0.3329452068       -0.5980839374        0.8459722597
 H         -0.4370951599       -0.4033572041       -0.9189630544
 H         -0.2538640978        1.0471560653        0.1116605041
 H          3.1578056667        0.9506444920       -0.0003236241
