  8
  -14.4477757000000       0.333334509103194      !
 C          1.4206747545        0.5151407276        0.0000096832
 O          0.5722179174       -0.6443882416       -0.0000335700
 C         -0.7234025299       -0.4808017275        0.0000437641
 O         -1.3273520042        0.5625679020       -0.0000217034
 H          0.8119832262        1.4192643309       -0.0034827198
 H          2.0426116745        0.4657880965       -0.8912516148
 H          2.0378051729        0.4696954557        0.8948473831
 H         -1.2146605996       -1.4651717031        0.0001274425
  8
  -14.4477757000000       0.333334509103194      !
 C          1.4206855327        0.5151359143       -0.0000205989
 O          0.5722150995       -0.6443849398        0.0000349398
 C         -0.7233995530       -0.4807961251       -0.0000341726
 O         -1.3273647482        0.5625620459        0.0000178934
 H          2.0439655142        0.4646430906        0.8902264500
 H          0.8120089975        1.4192573381        0.0054489998
 H          2.0364677260        0.4708265349       -0.8958471616
 H         -1.2146196518       -1.4651196402       -0.0000142670
  8
  -14.4477756900000       0.333330981793612      !
 C          1.4206836468        0.5151363884       -0.0000101980
 O          0.5722153593       -0.6443866967        0.0000123708
 C         -0.7233962297       -0.4807952466       -0.0000078683
 O         -1.3273644230        0.5625632315        0.0000049735
 H          2.0382118168        0.4694290670       -0.8945475980
 H          2.0422229808        0.4660306780        0.8915479185
 H          0.8119955713        1.4192644278        0.0029247628
 H         -1.2146341968       -1.4651238987        0.0000148854
