  12
  -13.7441634200000       7.129955267302839E-002 !
 C         -2.5050659825        0.0779343330       -0.0095807285
 C         -1.0981407955       -0.5089560582       -0.0251384061
 C         -0.0517095896        0.5898095326        0.0619572746
 S          1.6567284368       -0.0602900565       -0.0454226755
 H         -3.2430535835       -0.7173869758       -0.0666467975
 H         -2.6731244157        0.6410627574        0.9054611058
 H         -2.6501189241        0.7452876482       -0.8558314076
 H         -0.9430551001       -1.0782541223       -0.9440130395
 H         -0.9771114961       -1.1933095148        0.8174204437
 H         -0.1345021533        1.2768493461       -0.7802024805
 H         -0.1342076891        1.1540050771        0.9903450510
 H          1.6034351346       -0.8024298562        1.0538884668
  12
  -13.7441571900000       7.083105253465592E-002 !
 C         -2.5045452896        0.0719871953        0.0562567570
 C         -1.0981585610       -0.5066340090       -0.0502059906
 C         -0.0517433287        0.5918355645        0.0414650679
 S          1.6569069372       -0.0655961760        0.0131034323
 H         -2.6369678810        0.5818587195        1.0075718320
 H         -2.6848036196        0.7854226424       -0.7444587086
 H         -3.2425308189       -0.7221559287       -0.0155167118
 H         -0.9896322512       -1.0331138892       -1.0009516777
 H         -0.9308932993       -1.2276864678        0.7526644407
 H         -0.1452962537        1.3084408105       -0.7738998906
 H         -0.1227101897        1.1223541407        0.9910015539
 H          1.5898266965       -0.6014419261       -1.1994635693
  12
  -13.7441570000000       7.081681288587681E-002 !
 C         -2.5047194666        0.0719223258        0.0563196659
 C         -1.0983046290       -0.5065254587       -0.0502852679
 C         -0.0516082491        0.5917220524        0.0413724430
 S          1.6569853637       -0.0655386441        0.0131636534
 H         -2.6850338133        0.7854912660       -0.7441533281
 H         -3.2425092883       -0.7221555479       -0.0161421129
 H         -2.6377555028        0.5812978704        1.0078241295
 H         -0.9899328574       -1.0326964035       -1.0011255952
 H         -0.9309950676       -1.2281889014        0.7519578079
 H         -0.1451434076        1.3086254482       -0.7737595865
 H         -0.1214893760        1.1219984342        0.9910554239
 H          1.5895632305       -0.6016921619       -1.1993264582
  12
  -13.7441569000000       7.080931948379469E-002 !
 C         -2.5044247211        0.0719383159        0.0563177777
 C         -1.0979225988       -0.5064787964       -0.0503289683
 C         -0.0517866777        0.5921782278        0.0413935087
 S          1.6567721455       -0.0657311812        0.0131395929
 H         -3.2424312596       -0.7221304847       -0.0154872691
 H         -2.6369467829        0.5814184629        1.0077496033
 H         -2.6849591111        0.7858071366       -0.7441844274
 H         -0.9893191695       -1.0329693470       -1.0011045154
 H         -0.9302716520       -1.2274520505        0.7525816162
 H         -0.1458253037        1.3083721941       -0.7741702961
 H         -0.1231319435        1.1233358424        0.9905513475
 H          1.5904337152       -0.6037591386       -1.1985481448
  12
  -13.7441470900000       7.007805776960453E-002 !
 C         -2.5049833935        0.0780507430       -0.0098764962
 C         -1.0981930085       -0.5091465827       -0.0247069290
 C         -0.0517459703        0.5896098321        0.0623323699
 S          1.6567473931       -0.0601885203       -0.0456570634
 H         -2.6731359530        0.6417430222        0.9047647912
 H         -2.6495845209        0.7449712280       -0.8565618604
 H         -3.2433114051       -0.7169840568       -0.0667200594
 H         -0.9428034708       -1.0791110752       -0.9430653851
 H         -0.9775545649       -1.1929967279        0.8182980053
 H         -0.1347554713        1.2769561191       -0.7795519659
 H         -0.1340200269        1.1534384550        0.9909595836
 H          1.6028956950       -0.8021598805        1.0536678148
  12
  -13.7441442100000       6.986481290828502E-002 !
 C         -2.5049539152        0.0780208913       -0.0103237570
 C         -1.0979590953       -0.5087414583       -0.0238037556
 C         -0.0515414364        0.5900896545        0.0632186449
 S          1.6566465994       -0.0602030486       -0.0460004824
 H         -2.6493916775        0.7438218274       -0.8578837371
 H         -3.2428530110       -0.7174775306       -0.0665115636
 H         -2.6736963817        0.6427844919        0.9035352448
 H         -0.9421446973       -1.0791618021       -0.9418325794
 H         -0.9776556539       -1.1921937073        0.8196320690
 H         -0.1348985993        1.2777837800       -0.7783573035
 H         -0.1330724359        1.1534411922        0.9922890785
 H          1.5990733546       -0.8128683980        1.0458509620
  12
  -13.7440033100000       6.018736685951053E-002 !
 C         -1.9195451150       -0.2306584807        0.5348300886
 C         -1.1881998985       -0.0611900089       -0.7905415274
 C          0.1120927251        0.7123893473       -0.6366581960
 S          1.3453800977       -0.1565069575        0.4039882411
 H         -1.2863452067       -0.7482708882        1.2525263602
 H         -2.1849328553        0.7391368014        0.9502421512
 H         -2.8288539205       -0.8088620094        0.3960007607
 H         -1.8211375257        0.4861078953       -1.4928824197
 H         -0.9780158143       -1.0424710361       -1.2217568428
 H          0.5813978290        0.9050996043       -1.6006038271
 H         -0.0544637339        1.6596545448       -0.1241485976
 H          1.4694155284       -1.2227806036       -0.3775447331
  12
  -13.7440031500000       6.017717732830310E-002 !
 C         -1.9194357999       -0.2307452001        0.5348753279
 C         -1.1883461623       -0.0610366015       -0.7906070555
 C          0.1121247723        0.7122500947       -0.6367417717
 S          1.3454012726       -0.1564696434        0.4040312130
 H         -2.1840732847        0.7390076628        0.9508677468
 H         -2.8291409976       -0.8083236055        0.3959284397
 H         -1.2863627974       -0.7491070031        1.2521375401
 H         -1.8214075723        0.4863791331       -1.4926840323
 H         -0.9784205082       -1.0420996896       -1.2221742548
 H          0.5814117432        0.9047376865       -1.6007373112
 H         -0.0543275347        1.6595482207       -0.1242111033
 H          1.4687700429       -1.2228504513       -0.3774235415
  12
  -13.7440029300000       6.016316953968091E-002 !
 C         -1.9195655874       -0.2307203482        0.5348642283
 C         -1.1883304056       -0.0610870731       -0.7905902562
 C          0.1121209670        0.7122537711       -0.6367242244
 S          1.3454327667       -0.1564706492        0.4040213467
 H         -2.8293300305       -0.8082846196        0.3958196999
 H         -1.2864374167       -0.7491384283        1.2520822671
 H         -2.1841508916        0.7390411733        0.9509783868
 H         -1.8213088617        0.4865815061       -1.4925621955
 H         -0.9783761186       -1.0421310294       -1.2223343532
 H          0.5814585924        0.9048102351       -1.6006508512
 H         -0.0543681136        1.6595666360       -0.1242839142
 H          1.4693641815       -1.2228600410       -0.3773087016
  12
  -13.7439909100000       5.940277018705849E-002 !
 C         -1.9294607169       -0.0972468665       -0.5385522272
 C         -1.1732725821       -0.2556584879        0.7742202713
 C          0.1259953505        0.5346736683        0.7899188991
 S          1.3368522118       -0.0494576463       -0.4557770522
 H         -2.2034211134        0.9435311021       -0.6974022839
 H         -1.3095504792       -0.4186130536       -1.3730642314
 H         -2.8354673120       -0.6968622800       -0.5299467688
 H         -0.9576034370       -1.3120217738        0.9483023669
 H         -1.7918095240        0.1014951353        1.6007842278
 H         -0.0476813705        1.5784484551        0.5289556344
 H          0.6143401413        0.4856199509        1.7623786843
 H          1.4741625830       -1.2742140149        0.0382417303
  12
  -13.7439906800000       5.938831421408657E-002 !
 C         -1.9283624805       -0.0974782652       -0.5386518626
 C         -1.1726769208       -0.2554155296        0.7743208220
 C          0.1260733272        0.5356449829        0.7901455421
 S          1.3360164695       -0.0498740498       -0.4558788843
 H         -2.8348123167       -0.6963728165       -0.5294808670
 H         -2.2013857653        0.9433710380       -0.6983173924
 H         -1.3085301262       -0.4199262253       -1.3727730897
 H         -0.9570515946       -1.3117417336        0.9483243963
 H         -1.7917453238        0.1015049722        1.6005435285
 H         -0.0478086904        1.5794100223        0.5291149025
 H          0.6142392274        0.4868245087        1.7626994001
 H          1.4755370026       -1.2741515862        0.0386663717
  12
  -13.7439906500000       5.938642891184689E-002 !
 C         -1.9285030787       -0.0974473802       -0.5386275511
 C         -1.1727068379       -0.2554616133        0.7742848361
 C          0.1260618886        0.5356006088        0.7901067189
 S          1.3360958467       -0.0498510981       -0.4558594427
 H         -1.3086839983       -0.4196338297       -1.3728707624
 H         -2.8348814274       -0.6964503697       -0.5295489952
 H         -2.2016886564        0.9433893138       -0.6980649456
 H         -0.9570219447       -1.3118020195        0.9480756371
 H         -1.7917125859        0.1012621461        1.6006482496
 H         -0.0478273952        1.5793403432        0.5289973363
 H          0.6142491487        0.4868413514        1.7626551787
 H          1.4756522948       -1.2740490208        0.0388688074
  12
  -13.7431591800000       2.463599206950016E-002 !
 C         -1.9618801726       -0.2242226889        0.5005099507
 C         -1.1752487740       -0.1096816397       -0.7994306552
 C          0.1137191007        0.6847398911       -0.6477710465
 S          1.3805043843       -0.1634485242        0.3712674356
 H         -1.4072841205       -0.8017651166        1.2364707629
 H         -2.1680655355        0.7620301457        0.9107838387
 H         -2.9082417356       -0.7270120670        0.3204371042
 H         -1.7862728513        0.3958194539       -1.5509660258
 H         -0.9376663560       -1.1073646729       -1.1744219108
 H          0.5989259906        0.8176886928       -1.6145708613
 H         -0.0645865104        1.6611106645       -0.2000221425
 H          0.7836376644        0.0185497213        1.5423505517
  12
  -13.7431590500000       2.463260324423142E-002 !
 C         -1.9619348034       -0.2243253153        0.5004673161
 C         -1.1751287264       -0.1095157072       -0.7993753214
 C          0.1137867108        0.6849458870       -0.6476939431
 S          1.3804517874       -0.1635519594        0.3712291926
 H         -2.1681854597        0.7618305493        0.9109579518
 H         -2.9082785279       -0.7271231140        0.3202786887
 H         -1.4073640091       -0.8019943486        1.2363376107
 H         -1.7861079138        0.3960863200       -1.5508705831
 H         -0.9374076162       -1.1070891978       -1.1745537683
 H          0.5990359845        0.8180618284       -1.6144620699
 H         -0.0646554571        1.6612256807       -0.1997980797
 H          0.7834976051        0.0181405677        1.5423180625
  12
  -13.7431590500000       2.463260324423142E-002 !
 C         -1.9619870992       -0.2242062168        0.5004922326
 C         -1.1752433143       -0.1096891169       -0.7994030201
 C          0.1137413474        0.6847404651       -0.6477461421
 S          1.3805497614       -0.1634353491        0.3712534790
 H         -2.9084249514       -0.7268379277        0.3203542162
 H         -1.4075494608       -0.8018797046        1.2364723842
 H         -2.1680348184        0.7620666950        0.9108053337
 H         -1.7862568437        0.3956923497       -1.5510385724
 H         -0.9376151872       -1.1073856270       -1.1742999992
 H          0.5990147434        0.8177426905       -1.6145050350
 H         -0.0645743489        1.6610949011       -0.1999666786
 H          0.7833878670        0.0180302910        1.5422687204
  12
  -13.7431505300000       2.441151825485156E-002 !
 C         -1.9743274306       -0.1019230394       -0.5024006329
 C         -1.1602959737       -0.3008650734        0.7702192648
 C          0.1259906174        0.5119782108        0.7878890870
 S          1.3748862588       -0.0674622495       -0.4235824589
 H         -1.4354682051       -0.4810058677       -1.3676678124
 H         -2.9165401449       -0.6384662339       -0.4299347203
 H         -2.1895529842        0.9531713953       -0.6572791207
 H         -0.9158764982       -1.3585061944        0.8888423100
 H         -1.7549897574        0.0060879242        1.6338263898
 H         -0.0601753045        1.5655263970        0.5857406414
 H          0.6280186687        0.4157181031        1.7503873886
 H          0.7576704583        0.3824738060       -1.5087683173
  12
  -13.7431504700000       2.440996837550231E-002 !
 C         -1.9743158097       -0.1019414799       -0.5024155561
 C         -1.1602858749       -0.3008402935        0.7702363224
 C          0.1260353086        0.5119767655        0.7879040707
 S          1.3748663658       -0.0674619358       -0.4235930835
 H         -2.1891014159        0.9531515101       -0.6578623932
 H         -1.4356423665       -0.4816199488       -1.3674846377
 H         -2.9167255118       -0.6381386548       -0.4297452562
 H         -0.9159257756       -1.3584754080        0.8890404428
 H         -1.7549526898        0.0063479936        1.6337712670
 H         -0.0601786402        1.5655519928        0.5857834916
 H          0.6280880018        0.4156638765        1.7504058016
 H          0.7573661116        0.3824496698       -1.5086279449
  12
  -13.7431504700000       2.440996837550231E-002 !
 C         -1.9742320319       -0.1019890924       -0.5024482515
 C         -1.1603116335       -0.3007830479        0.7702801106
 C          0.1260547702        0.5119611883        0.7879420108
 S          1.3748245904       -0.0674719010       -0.4236177744
 H         -2.9166642035       -0.6381670647       -0.4298045485
 H         -2.1890215714        0.9531044984       -0.6579585963
 H         -1.4354678953       -0.4817554389       -1.3674287686
 H         -0.9160043701       -1.3584134930        0.8892261699
 H         -1.7550108914        0.0065232563        1.6337400323
 H         -0.0601015577        1.5655463200        0.5858565515
 H          0.6281463208        0.4156008833        1.7504119407
 H          0.7574575762        0.3828799149       -1.5085608204
  12
  -13.7422997200000       9.921779868763001E-003 !
 C         -2.5054413403        0.0396579246        0.0205105853
 C         -1.0861166282       -0.5122996067       -0.0395306830
 C         -0.0613206148        0.6057334678        0.0549100122
 S          1.6347232672       -0.1047631077       -0.0199601511
 H         -2.6684929557        0.5704883328        0.9555141598
 H         -2.6813450972        0.7277973816       -0.8029522161
 H         -3.2252066659       -0.7714012276       -0.0467997725
 H         -0.9375427750       -1.0561798309       -0.9755040622
 H         -0.9252004894       -1.2157416848        0.7809718610
 H         -0.1631583617        1.3000571350       -0.7783210453
 H         -0.1518523423        1.1392694344        1.0003746145
 H          2.2768102932        1.0525160004        0.0740240004
  12
  -13.7422996900000       9.921464898466847E-003 !
 C         -2.5056821634        0.0395845479        0.0203394580
 C         -1.0862452800       -0.5122025477       -0.0392168251
 C         -0.0612378438        0.6056437996        0.0551883705
 S          1.6348613870       -0.1047436492       -0.0200882724
 H         -3.2254458364       -0.7713139341       -0.0473709383
 H         -2.6691882452        0.5702437344        0.9553051709
 H         -2.6815124609        0.7279517026       -0.8028824200
 H         -0.9375628769       -1.0560792401       -0.9751677907
 H         -0.9254340363       -1.2156432635        0.7813231262
 H         -0.1631689903        1.3000703993       -0.7779509951
 H         -0.1517234879        1.1391889005        1.0006610697
 H          2.2770700452        1.0525545219        0.0724483906
  12
  -13.7422986400000       9.910447235365751E-003 !
 C         -2.5055082153        0.0394496426        0.0205797866
 C         -1.0860253184       -0.5120286529       -0.0396125813
 C         -0.0611489106        0.6061162749        0.0548837736
 S          1.6346441542       -0.1049372419       -0.0199069944
 H         -2.6820103391        0.7278871862       -0.8024576729
 H         -3.2249639588       -0.7717835158       -0.0470155958
 H         -2.6687026594        0.5697007723        0.9558143475
 H         -0.9377175548       -1.0558248574       -0.9757106213
 H         -0.9252710903       -1.2159700022        0.7804492223
 H         -0.1629211512        1.3005450385       -0.7783967586
 H         -0.1508871010        1.1399295818        1.0002114759
 H          2.2766650049        1.0525525497        0.0731860727
  12
  -13.7419460100000       6.823948273494960E-003 !
 C         -1.9240597753       -0.2556006067        0.5221592275
 C         -1.1761962350       -0.0905072797       -0.7951401866
 C          0.0983211243        0.7224880351       -0.6364715251
 S          1.3232201284       -0.1957602975        0.3907791361
 H         -2.8246011240       -0.8457700279        0.3757448142
 H         -1.2960708245       -0.7622310193        1.2525711437
 H         -2.2057155494        0.7147660620        0.9250208513
 H         -1.8155693249        0.4194553880       -1.5193219571
 H         -0.9249170540       -1.0736462442       -1.2001909205
 H          0.5670698732        0.9017422284       -1.6030041295
 H         -0.1020968102        1.6679757290       -0.1338917983
 H          2.2787860794        0.7202803116        0.3086763720
  12
  -13.7419459700000       6.823659436935202E-003 !
 C         -1.9237656602       -0.2555604036        0.5221851276
 C         -1.1760256916       -0.0905719233       -0.7952037697
 C          0.0982980754        0.7226534568       -0.6365068767
 S          1.3230122473       -0.1958079924        0.3907938311
 H         -2.2056907269        0.7147899130        0.9249610668
 H         -2.8241203835       -0.8459857216        0.3757058157
 H         -1.2956679331       -0.7620601327        1.2526324214
 H         -1.8153684920        0.4192094536       -1.5195621461
 H         -0.9244829961       -1.0737224548       -1.2000850474
 H          0.5669839678        0.9019817919       -1.6030205610
 H         -0.1021699896        1.6680922869       -0.1338664227
 H          2.2787527000        0.7201046223        0.3092420576
  12
  -13.7419457100000       6.821782297258750E-003 !
 C         -1.9242002784       -0.2555944974        0.5221297361
 C         -1.1761218366       -0.0904044306       -0.7949822040
 C          0.0982873183        0.7226464078       -0.6363055597
 S          1.3231999817       -0.1957889078        0.3907600508
 H         -1.2961890432       -0.7615070886        1.2529353894
 H         -2.2067221709        0.7146753003        0.9246644328
 H         -2.8242745575       -0.8464830655        0.3756125109
 H         -1.8154476665        0.4194013123       -1.5193338350
 H         -0.9245521493       -1.0735909091       -1.1997413644
 H          0.5669217014        0.9021141685       -1.6027998633
 H         -0.1019499561        1.6680373051       -0.1335435257
 H          2.2809305641        0.7176500105        0.3049089964
  12
  -13.7419354200000       6.747904057761480E-003 !
 C         -1.9358412007       -0.1233749039       -0.5317459684
 C         -1.1608116652       -0.2871374903        0.7699225543
 C          0.1113930344        0.5444307735        0.7914358696
 S          1.3162094512       -0.0907799163       -0.4511179238
 H         -1.3231394927       -0.4294601525       -1.3776071906
 H         -2.8333434961       -0.7357803155       -0.5184864072
 H         -2.2255104458        0.9152874178       -0.6749702461
 H         -0.9026991243       -1.3390408524        0.9136888514
 H         -1.7843241234        0.0252920883        1.6107236183
 H         -0.0976402614        1.5831635632        0.5386314015
 H          0.5982486316        0.4840943717        1.7637369983
 H          2.2696166328        0.7885639098       -0.1736531343
  12
  -13.7419354100000       6.747832652160728E-003 !
 C         -1.9358381905       -0.1233519200       -0.5317432474
 C         -1.1608120488       -0.2871727019        0.7699179750
 C          0.1113795670        0.5444139768        0.7914298570
 S          1.3162148873       -0.0907684004       -0.4511159374
 H         -2.8333233806       -0.7357799505       -0.5184899696
 H         -2.2255363619        0.9153099525       -0.6749167557
 H         -1.3231404201       -0.4293869944       -1.3776261530
 H         -0.9026980946       -1.3390825308        0.9136549559
 H         -1.7843187441        0.0252371022        1.6107301900
 H         -0.0976468178        1.5831552987        0.5386510765
 H          0.5982277034        0.4840522571        1.7637320890
 H          2.2696006825        0.7885944069       -0.1736409422
  12
  -13.7419348300000       6.743692420242240E-003 !
 C         -1.9360866932       -0.1232548201       -0.5320672819
 C         -1.1621194729       -0.2870838433        0.7702758528
 C          0.1111255691        0.5427603590        0.7915160571
 S          1.3169488785       -0.0900880774       -0.4513445530
 H         -2.2227304750        0.9159753078       -0.6770075751
 H         -1.3239986592       -0.4320737418       -1.3773951275
 H         -2.8353654603       -0.7330155685       -0.5180535958
 H         -0.9050799833       -1.3390203124        0.9152008498
 H         -1.7857619900        0.0269659898        1.6104135995
 H         -0.0980072136        1.5817794575        0.5403024742
 H          0.5979218062        0.4816063809        1.7636820365
 H          2.2724039500        0.7857282677       -0.1692058636
