  10
        -11.55343231
 C          1.8279912617       -0.1174387295        0.0000161265
 C          0.6036497017        0.3991563502        0.0000197598
 C         -0.6036510198       -0.3991538484       -0.0001296228
 C         -1.8279901350        0.1174368364        0.0000546230
 H          2.7085550048        0.5009604284        0.0000612176
 H          1.9888695251       -1.1830406451        0.0000835121
 H          0.4638284609        1.4723702028        0.0000211975
 H         -0.4638289534       -1.4723683008        0.0001811724
 H         -2.7085536746       -0.5009677815        0.0003571696
 H         -1.9888680805        1.1830388425       -0.0002381882
