  34
        -56.77580774
 C         -0.2659911971       -1.2016545041        2.8136329115
 C          0.1623115910       -1.9687663788        1.5810531519
 O          0.0218499078       -1.1980378021        0.3664395891
 P         -1.3355638902       -0.6294678358       -0.2143730427
 S         -1.2377349701       -0.3971422363       -2.1576476562
 O         -2.3821445244       -1.7242448852        0.2820692205
 C         -3.6652587699       -1.9071523840       -0.3410408690
 C         -4.5745097513       -0.7076441384       -0.1687231591
 S         -1.8492955480        1.1134658470        0.8891266648
 C         -1.2968804035        2.4064977489       -0.2711694935
 S          0.2687026700        3.1854929590        0.2032107677
 C          1.3722455954        1.7968495268        0.0105828457
 C          1.5772390917        1.2313604951       -1.2381342007
 C          2.4010635023        0.1277554544       -1.3616551971
 C          3.0223313604       -0.3816913358       -0.2336646192
 C          2.8533331438        0.2020013045        1.0115162124
 C          2.0191538170        1.2981509929        1.1311377775
 Cl         4.0331975147       -1.7848503969       -0.3858425454
 H         -1.3346062662       -0.9979918628        2.7792045527
 H         -0.0480300784       -1.7977804161        3.6942880087
 H          0.2697802281       -0.2583055593        2.8774595791
 H         -0.4172936249       -2.8877883264        1.4727712702
 H          1.2278467044       -2.2043898706        1.6027958787
 H         -3.5057675438       -2.1169544590       -1.4034793166
 H         -4.0688173613       -2.7916092398        0.1543820615
 H         -5.5644106789       -0.9559695626       -0.5379940737
 H         -4.6400083111       -0.4264396088        0.8792751461
 H         -4.1896446372        0.1370059847       -0.7380191101
 H         -2.0440341735        3.1948240253       -0.2502817639
 H         -1.2195636985        1.9576607085       -1.2628688511
 H          1.0949478720        1.6415916031       -2.1121275302
 H          2.5490234882       -0.3327402659       -2.3252755407
 H          3.3568877289       -0.2022384623        1.8745171237
 H          1.8626527810        1.7701490720        2.0885023300
