  11
        -17.62649198
 C         -1.7438006234       -0.6661398378        0.0000231589
 C         -0.4666331349        0.1178989499       -0.0000246961
 O         -0.3951575483        1.3301406163        0.0000240555
 O          0.5937401217       -0.6821406601        0.0000109985
 C          1.9044024982       -0.1088852295        0.0000022618
 H         -1.5262860109       -1.7284772369        0.0041897232
 H         -2.3222307541       -0.3987232184       -0.8805743238
 H         -2.3263631933       -0.3922148769        0.8758442198
 H          2.4154046573       -0.4489100627       -0.8987959227
 H          2.4217148695       -0.4665286566        0.8881806924
 H          1.8322911268        0.9793074957        0.0105905516
