  11
  -17.6264919800000       6.052268855901672E-002 !
 C         -1.7438006234       -0.6661398378        0.0000231589
 C         -0.4666331349        0.1178989499       -0.0000246961
 O         -0.3951575483        1.3301406163        0.0000240555
 O          0.5937401217       -0.6821406601        0.0000109985
 C          1.9044024982       -0.1088852295        0.0000022618
 H         -1.5262860109       -1.7284772369        0.0041897232
 H         -2.3222307541       -0.3987232184       -0.8805743238
 H         -2.3263631933       -0.3922148769        0.8758442198
 H          2.4154046573       -0.4489100627       -0.8987959227
 H          2.4217148695       -0.4665286566        0.8881806924
 H          1.8322911268        0.9793074957        0.0105905516
  11
  -17.6264913900000       6.048491392218856E-002 !
 C         -1.7437893835       -0.6661311135        0.0001730184
 C         -0.4666444640        0.1179077136       -0.0001829707
 O         -0.3952087024        1.3301511908       -0.0000758248
 O          0.5937497242       -0.6821209582       -0.0003912477
 C          1.9044420438       -0.1089251943        0.0002088160
 H         -1.5264258463       -1.7283159106       -0.0199562624
 H         -2.3347419808       -0.3798946157       -0.8659599294
 H         -2.3136736059       -0.4112229871        0.8900559895
 H          1.8323370240        0.9793485361        0.0040006851
 H          2.4176463813       -0.4548489599       -0.8950914429
 H          2.4195781201       -0.4608253716        0.8919952869
  11
  -17.6264912800000       6.047787380117985E-002 !
 C         -1.7438430719       -0.6661158674       -0.0001182685
 C         -0.4666290212        0.1178687432        0.0003199948
 O         -0.3951128491        1.3301026365       -0.0000543371
 O          0.5937548429       -0.6821599748        0.0000689496
 C          1.9043736800       -0.1088297597       -0.0000782676
 H         -2.3272872447       -0.3915962507        0.8749351091
 H         -1.5263395556       -1.7284471209        0.0048864175
 H         -2.3213903107       -0.3993001847       -0.8814827202
 H          2.4051074393       -0.4201830543        0.9149166849
 H          1.8326278158        0.9785346472       -0.0445350475
 H          2.4316695516       -0.4942318094       -0.8704235417
  11
  -17.6264910700000       6.046443584580050E-002 !
 C         -1.7437866909       -0.6661479227        0.0000657859
 C         -0.4666391848        0.1178900172       -0.0003148014
 O         -0.3950811496        1.3301205148        0.0000974467
 O          0.5937188212       -0.6821623290        0.0000671460
 C          1.9043318720       -0.1088323958       -0.0000303668
 H         -2.3263780643       -0.3926862352       -0.8758651352
 H         -2.3220620603       -0.3982127429        0.8805859510
 H         -1.5263307161       -1.7284957152       -0.0035438179
 H          2.4051267933       -0.4207572318       -0.9148015480
 H          2.4315836877       -0.4937369403        0.8705921599
 H          1.8324641232        0.9785785553        0.0437489017
  11
  -17.6264908300000       6.044908183869480E-002 !
 C         -1.7438369161       -0.6661193869       -0.0000163355
 C         -0.4666122850        0.1178390301        0.0002528698
 O         -0.3950104327        1.3300982334       -0.0001316274
 O          0.5937503174       -0.6822342926       -0.0002176759
 C          1.9042739535       -0.1087399965        0.0000739431
 H         -2.3205260011       -0.4013968109        0.8825508920
 H         -1.5264343295       -1.7284740304       -0.0076461337
 H         -2.3281298666       -0.3894132246       -0.8738310759
 H          1.8323964977        0.9782331210       -0.0527722683
 H          2.4343145839       -0.5007906722       -0.8655836596
 H          2.4021285247       -0.4128062161        0.9191271788
  11
  -17.6264907000000       6.044076671278352E-002 !
 C         -1.7439420763       -0.6660331291        0.0003671077
 C         -0.4665934014        0.1177694208       -0.0004119247
 O         -0.3949385746        1.3299581625       -0.0001171018
 O          0.5937559187       -0.6822512864       -0.0007369875
 C          1.9042706931       -0.1086153464        0.0004319083
 H         -1.5266216322       -1.7281650876       -0.0292366621
 H         -2.3399490054       -0.3722828040       -0.8597365092
 H         -2.3087493944       -0.4185410510        0.8956183787
 H          2.4186618136       -0.4598921265        0.8928463952
 H          1.8316177520        0.9797459691        0.0036331790
 H          2.4186272668       -0.4547033180       -0.8941801389
  11
  -17.6264906900000       6.044012713503909E-002 !
 C         -1.7438529854       -0.6660654710       -0.0000218177
 C         -0.4666250945        0.1177962839        0.0004130927
 O         -0.3949083008        1.3300082245       -0.0001599256
 O          0.5937360338       -0.6822901104       -0.0002451013
 C          1.9041940074       -0.1086164210        0.0001093454
 H         -2.3230825123       -0.3967702860       -0.8795553958
 H         -2.3256875354       -0.3939125495        0.8768866727
 H         -1.5264723446       -1.7284469011        0.0019029194
 H          2.3909272772       -0.3819355951        0.9348343888
 H          1.8333916058        0.9761414353       -0.0881668536
 H          2.4445752390       -0.5290148144       -0.8454380428
  11
  -17.6264902900000       6.041454957625623E-002 !
 C         -1.7438569399       -0.6661302932        0.0001131923
 C         -0.4666644876        0.1178897976       -0.0001735396
 O         -0.3951587083        1.3301180176        0.0000442004
 O          0.5937561302       -0.6821308983       -0.0000759113
 C          1.9044503133       -0.1088779510        0.0000800469
 H         -2.3254618168       -0.3935870616        0.8770380237
 H         -1.5263198571       -1.7284595864        0.0024632940
 H         -2.3232811093       -0.3974118780       -0.8793959163
 H          2.4096201774       -0.4321002349       -0.9082604160
 H          2.4276740445       -0.4828564695        0.8779075600
 H          1.8325384667        0.9789810317        0.0305160700
  11
  -17.6264896400000       6.037300912711363E-002 !
 C         -1.7437748149       -0.6661485975        0.0001964488
 C         -0.4666421058        0.1179099809       -0.0001433234
 O         -0.3951596329        1.3301493919       -0.0000511953
 O          0.5937277426       -0.6821423632       -0.0003629991
 C          1.9043990646       -0.1088946049        0.0002346887
 H         -2.3281914001       -0.3899420247       -0.8736385241
 H         -2.3203791916       -0.4010853373        0.8827177642
 H         -1.5262381668       -1.7284721806       -0.0070052709
 H          1.8322484273        0.9792909401        0.0112127486
 H          2.4156695430       -0.4485189328       -0.8985620187
 H          2.4214913474       -0.4668466320        0.8884203307
  11
  -17.6264561500000       5.827092125089214E-002 !
 C         -1.7493076680       -0.6616628191       -0.0000300289
 C         -0.4654762324        0.1103995557       -0.0007062890
 O         -0.3754296812        1.3210273356        0.0003576513
 O          0.5937468223       -0.6933286347        0.0006503104
 C          1.8887011734       -0.0883230518       -0.0003422004
 H         -1.5400809817       -1.7256694872        0.0013051520
 H         -2.3273553634       -0.3876272937       -0.8788678792
 H         -2.3281308113       -0.3853534649        0.8775521442
 H          2.0634636857        0.4122708632       -0.9533286681
 H          2.5930363932       -0.9009741314        0.1463270580
 H          1.9592794523        0.6450497954        0.8038642004
  11
  -17.6264560200000       5.826290574375077E-002 !
 C         -1.7492552307       -0.6617151958        0.0000825054
 C         -0.4654919190        0.1105031328       -0.0008744861
 O         -0.3757331232        1.3211460786        0.0003731889
 O          0.5937740563       -0.6931447373        0.0005247372
 C          1.8889611213       -0.0886346559       -0.0002373116
 H         -1.5399452847       -1.7257063198       -0.0002465535
 H         -2.3283814546       -0.3864723710       -0.8776404105
 H         -2.3271239478       -0.3867409192        0.8787173847
 H          1.9531101742        0.6586473953        0.7916368237
 H          2.0714528828        0.3949910414       -0.9604875257
 H          2.5919488564       -0.8987234637        0.1660323426
  11
  -17.6264558900000       5.825489133918943E-002 !
 C         -1.7492672071       -0.6616918390       -0.0000572731
 C         -0.4654971936        0.1104377544       -0.0006792696
 O         -0.3754445259        1.3210493420        0.0003748266
 O          0.5937357843       -0.6932984270        0.0007211871
 C          1.8887043216       -0.0883673573       -0.0003796282
 H         -2.3254347734       -0.3905999591       -0.8810698245
 H         -2.3300675102       -0.3825115644        0.8753060400
 H         -1.5399737185       -1.7256968857        0.0049915163
 H          1.9585557644        0.6468088406        0.8022624572
 H          2.0644563620        0.4100926981       -0.9543117324
 H          2.5928172196       -0.9008070867        0.1487245431
  11
  -17.6264537200000       5.812127510298690E-002 !
 C         -1.7492195182       -0.6617157699       -0.0001854823
 C         -0.4654829509        0.1105095957        0.0009634791
 O         -0.3757569763        1.3211601510       -0.0003373749
 O          0.5937566947       -0.6931459158       -0.0003318180
 C          1.8889682022       -0.0886530875        0.0000836115
 H         -1.5400876901       -1.7257468851        0.0010306996
 H         -2.3263941366       -0.3873738330       -0.8794318919
 H         -2.3290187985       -0.3856850706        0.8768121372
 H          2.5916290824       -0.8980580496       -0.1707701709
 H          2.0734800280        0.3912265481        0.9618257450
 H          1.9514901628        0.6615774451       -0.7891112031
  11
  -17.6264514500000       5.798182940345192E-002 !
 C         -1.7495117325       -0.6614966814       -0.0000933745
 C         -0.4654157347        0.1100787191       -0.0003263751
 O         -0.3745098799        1.3206699066        0.0001606426
 O          0.5937413950       -0.6938509459        0.0003808729
 C          1.8879476636       -0.0873970304       -0.0002631827
 H         -2.3225370807       -0.3943563809        0.8841693100
 H         -1.5407586622       -1.7255591072       -0.0105951237
 H         -2.3332384839       -0.3779903862       -0.8721095484
 H          1.9844902193        0.5873455436        0.8511464271
 H          2.0323834041        0.4801187687       -0.9203082267
 H          2.5960484548       -0.9070888907        0.0672393890
  11
  -17.6264436500000       5.750522168243762E-002 !
 C         -1.7494325674       -0.6616277404       -0.0000569692
 C         -0.4654324130        0.1102056362        0.0000096278
 O         -0.3745919930        1.3207894361        0.0001372116
 O          0.5936789997       -0.6937428139        0.0003398947
 C          1.8880096669       -0.0875627919       -0.0001444190
 H         -2.3148955542       -0.4066730456       -0.8927658395
 H         -2.3406438651       -0.3666655488        0.8629589269
 H         -1.5406541118       -1.7254078584        0.0254860406
 H          2.5963891242       -0.9088331702        0.0397245026
 H          1.9943650359        0.5658100600        0.8665976257
 H          2.0226376186        0.5026499464       -0.9072894960
  11
  -17.6264416100000       5.738121804806191E-002 !
 C         -1.7494027345       -0.6616121574       -0.0006309386
 C         -0.4654777976        0.1102228197        0.0005752893
 O         -0.3745657017        1.3207553156        0.0001647046
 O          0.5936583232       -0.6937739615        0.0011540304
 C          1.8879434319       -0.0875254970       -0.0007817121
 H         -2.3407623141       -0.3678205239        0.8626707548
 H         -1.5400664167       -1.7253886067        0.0236531300
 H         -2.3142349812       -0.4055515675       -0.8935065869
 H          2.5966062362       -0.9094542840       -0.0116464230
 H          2.0131221914        0.5269708265        0.8915017511
 H          2.0034189842        0.5423257028       -0.8836272862
  11
  -17.6263144000000       5.015429091115640E-002 !
 C         -1.7444179496       -0.6656238423        0.0010472639
 C         -0.4674250801        0.1186775952       -0.0025031347
 O         -0.3897064291        1.3298172716        0.0004868280
 O          0.5922245471       -0.6844369067       -0.0006188271
 C          1.8985196943       -0.1027768506        0.0006363095
 H         -2.5897388118        0.0134603789       -0.0294407290
 H         -1.7841536490       -1.2762243946        0.8991296111
 H         -1.7590112878       -1.3297982969       -0.8586157556
 H          1.8534564371        0.9128184561        0.3956850477
 H          2.2786163258       -0.0838029139       -1.0205787910
 H          2.5197845639       -0.7386332935        0.6256818703
