  14
  -18.8221109700000       0.187910754229686      !
 C          2.0144832962        0.7728236003       -0.0003629882
 C          0.7847830721       -0.0912495486       -0.0001718395
 O          0.8416383266       -1.3106705168        0.0011951710
 C         -0.4954547601        0.6437266781       -0.0018969926
 C         -1.6673233768        0.0279163850       -0.7401254795
 C         -1.6667349112        0.0324628045        0.7411334528
 H          2.0060038095        1.4117649227        0.8793992143
 H          2.9081911813        0.1552572619        0.0009843078
 H          2.0074387900        1.4098113202       -0.8815519258
 H         -0.4099319481        1.7207836790       -0.0048887573
 H         -2.3237304227        0.6987273224       -1.2706427546
 H         -1.4745999448       -0.9089719234       -1.2407966422
 H         -2.3226475177        0.7067126625        1.2679065034
 H         -1.4738149920       -0.9012607298        1.2475853984
  14
  -18.8221099300000       0.187704067943442      !
 C          2.0144648417        0.7727849104       -0.0015086811
 C          0.7846951816       -0.0911880357        0.0001372430
 O          0.8414584379       -1.3106238299        0.0020871187
 C         -0.4954434324        0.6438482022       -0.0009695371
 C         -1.6669033478        0.0288487735       -0.7405337027
 C         -1.6668941901        0.0313538842        0.7407381778
 H          2.9081311136        0.1551768339        0.0003591024
 H          2.0070450273        1.4084171787       -0.8836732440
 H          2.0064502962        1.4131212658        0.8772094067
 H         -0.4099124094        1.7208968784       -0.0028671506
 H         -2.3232682873        0.7003522262       -1.2702378145
 H         -1.4736963356       -0.9071585379       -1.2426742628
 H         -2.3232647654        0.7046253157        1.2681782565
 H         -1.4736951389       -0.9029642059        1.2460348999
  14
  -18.8221099000000       0.187698109213945      !
 C          2.0145270884        0.7727522021       -0.0020033392
 C          0.7847040695       -0.0911607364        0.0002695607
 O          0.8414710670       -1.3105961528        0.0024259989
 C         -0.4954697244        0.6438505551       -0.0005322226
 C         -1.6667870509        0.0292225111       -0.7407188825
 C         -1.6670597916        0.0309597409        0.7405551007
 H          2.0066683095        1.4085373246       -0.8840303609
 H          2.0069819729        1.4130241258        0.8767687142
 H          2.9081466183        0.1551459526       -0.0006514524
 H         -0.4099728728        1.7209003442       -0.0017943033
 H         -2.3231353252        0.7009561499       -1.2701419361
 H         -1.4735704153       -0.9065634422       -1.2433010633
 H         -2.3235336192        0.7039295280        1.2682053915
 H         -1.4739424628       -0.9036227829        1.2453898286
  14
  -18.8210919000000       6.391745731320810E-002 !
 C          1.4337319920        0.9385532403       -0.2716921121
 C          0.7609535980       -0.3635796874        0.0558468029
 O          1.4067311063       -1.3893776588        0.2247726734
 C         -0.7059153156       -0.3786346681        0.2021187797
 C         -1.4894199791        0.8541464307        0.5929328084
 C         -1.6085734991        0.3300183216       -0.7890566114
 H          1.4749454375        1.5400281220        0.6346982098
 H          2.4504798043        0.7459420280       -0.6029641209
 H          0.8904904982        1.4926333846       -1.0295868904
 H         -1.0613109489       -1.3329984554        0.5737771363
 H         -2.3110934365        0.7071477675        1.2758278463
 H         -0.9429306656        1.7688149144        0.7531110779
 H         -2.5092524532       -0.1900532860       -1.0747076572
 H         -1.1451898897        0.8723378893       -1.5974525577
  14
  -18.8210918300000       6.391272288999440E-002 !
 C          1.4337384367        0.9387726382       -0.2705316929
 C          0.7608580557       -0.3636821520        0.0553612099
 O          1.4067312479       -1.3894594498        0.2238991656
 C         -0.7060230471       -0.3790037473        0.2012400466
 C         -1.4895019660        0.8532602084        0.5937707090
 C         -1.6083842194        0.3312203710       -0.7890254263
 H          0.8885461285        1.4959192951       -1.0247894816
 H          1.4788638347        1.5371438597        0.6377610632
 H          2.4492367970        0.7462745311       -0.6057480477
 H         -1.0615448891       -1.3338126436        0.5716340942
 H         -2.3113259492        0.7051334096        1.2762616661
 H         -0.9428769324        1.7675266276        0.7557234278
 H         -2.5089113622       -0.1884958232       -1.0756972426
 H         -1.1447846027        0.8747025737       -1.5965032794
  14
  -18.8210891400000       6.373105119523205E-002 !
 C          1.4330602517        0.9374370121        0.2769799208
 C          0.7609762549       -0.3634610707       -0.0567768601
 O          1.4070591822       -1.3884387068       -0.2295096492
 C         -0.7057594831       -0.3779193433       -0.2042662198
 C         -1.6090211652        0.3269587794        0.7890852285
 C         -1.4887202143        0.8565401758       -0.5907256439
 H          2.4508100590        0.7440134361        0.6048427443
 H          1.4712496910        1.5449464633       -0.6255052841
 H          0.8908794837        1.4858617038        1.0397822143
 H         -1.0610139363       -1.3307223127       -0.5800063921
 H         -2.5101046394       -0.1938881227        1.0719994925
 H         -1.1460123029        0.8658286150        1.5999716381
 H         -2.3100255018        0.7124742098       -1.2746852358
 H         -0.9419785751        1.7717315248       -0.7468906527
  14
  -18.8210846500000       6.342896440052483E-002 !
 C          1.4332512598        0.9387775361       -0.2709468516
 C          0.7609211055       -0.3637934657        0.0557925362
 O          1.4068357794       -1.3896170282        0.2240892585
 C         -0.7059793609       -0.3789588630        0.2016149858
 C         -1.4893072523        0.8535905638        0.5935022919
 C         -1.6081587175        0.3310372381       -0.7890801356
 H          2.4505701265        0.7469819152       -0.6008037626
 H          0.8906362485        1.4919867350       -1.0299833891
 H          1.4726500824        1.5407653455        0.6351947473
 H         -1.0616889983       -1.3336968008        0.5719645111
 H         -2.3112655888        0.7061220689        1.2759463501
 H         -0.9426239812        1.7679320393        0.7548050744
 H         -2.5089699357       -0.1882567358       -1.0756335387
 H         -1.1442381532        0.8740374578       -1.5966752667
  14
  -18.8210846200000       6.342695082647028E-002 !
 C          1.4331062130        0.9373423227        0.2773210322
 C          0.7609980278       -0.3634194822       -0.0569069065
 O          1.4070562061       -1.3883753411       -0.2297736458
 C         -0.7057438851       -0.3777811384       -0.2045671598
 C         -1.6090393909        0.3265973818        0.7891350975
 C         -1.4888101946        0.8567714635       -0.5904366658
 H          1.4744551993        1.5435321673       -0.6259278131
 H          0.8891704721        1.4871322188        1.0378627967
 H          2.4497453996        0.7436817978        0.6082344070
 H         -1.0609995157       -1.3304189174       -0.5807287488
 H         -2.5100706432       -0.1944196829        1.0718948272
 H         -1.1461314133        0.8653289410        1.6001679906
 H         -2.3100624009        0.7129842169       -1.2745117626
 H         -0.9419591800        1.7719552443       -0.7462594399
  14
  -18.8210845700000       6.342359501160072E-002 !
 C          1.4331093350        0.9377195948        0.2757637953
 C          0.7610062728       -0.3635520641       -0.0564644963
 O          1.4070724079       -1.3886355142       -0.2284879708
 C         -0.7057944871       -0.3782802267       -0.2033111863
 C         -1.6088950247        0.3282782273        0.7890378078
 C         -1.4889060838        0.8555300781       -0.5916280234
 H          0.8901938569        1.4878742699        1.0367798023
 H          2.4502678219        0.7445057673        0.6052588045
 H          1.4728708712        1.5433236821       -0.6278923483
 H         -1.0611328297       -1.3317245521       -0.5774242926
 H         -2.5099515566       -0.1920066508        1.0730116356
 H         -1.1459577396        0.8689047986        1.5987771378
 H         -2.3103044467        0.7103389218       -1.2752082275
 H         -0.9422053644        1.7704843499       -0.7493044886
  14
  -18.8209472600000       5.484632697589626E-002 !
 C          1.4436778152        0.9685247800        0.0208946055
 C          0.7624231832       -0.3695619588       -0.0038906839
 O          1.4053276933       -1.4110065965       -0.0177345135
 C         -0.7112605056       -0.4128064624       -0.0144022496
 C         -1.5552650520        0.5876021711        0.7479171475
 C         -1.5465436217        0.6255788955       -0.7338095945
 H          1.1737020474        1.5412673098       -0.8621639986
 H          1.1391049521        1.5298070325        0.8997505001
 H          2.5200939556        0.8220172585        0.0399380610
 H         -1.0769467300       -1.4332237279       -0.0414475533
 H         -2.4239391204        0.1973627697        1.2543230943
 H         -1.0479799456        1.3691427140        1.2892797210
 H         -2.4094739596        0.2625134847       -1.2694209180
 H         -1.0330170815        1.4338638571       -1.2278616295
