  13
        -18.62270175
 C         -1.8161522803        0.5735720760       -0.3091907369
 O         -0.9969565153       -0.1378979932        0.6099825059
 C         -0.0000265275       -0.9028899039        0.0000363866
 O          0.9969882057       -0.1380275257       -0.6099465600
 C          1.8161599436        0.5736213368        0.3091140809
 H         -1.2106015294        1.2263780792       -0.9424933465
 H         -2.4992870866        1.1631335991        0.2954619600
 H         -2.3740327966       -0.1265536436       -0.9379207163
 H          0.4155863078       -1.5287115082        0.8021719950
 H         -0.4156754878       -1.5288509475       -0.8019895729
 H          2.3735758954       -0.1263806015        0.9384809734
 H          1.2105661231        1.2269453048        0.9418234168
 H          2.4995903296        1.1627561886       -0.2956254370
