  16
  -19.8806301400000       0.499705527113497      !
 C         -1.4802962446       -0.0017362939       -0.2438772632
 C         -0.7323122379       -1.2446478718        0.2359156597
 C          0.7233070520       -1.1712822253       -0.2248306365
 O          1.3673174577        0.0015957419        0.2396033040
 C          0.7203829605        1.1729218151       -0.2248374151
 C         -0.7353747751        1.2429509494        0.2359458100
 H         -2.5019276727       -0.0028704880        0.1375346655
 H         -1.5232315478       -0.0018179561       -1.3357418290
 H         -0.7551991176       -1.2869085720        1.3262847846
 H         -1.1897958128       -2.1514990788       -0.1588597855
 H          1.3091161616       -2.0003861250        0.1756851504
 H          0.7672272675       -1.1982561831       -1.3248960891
 H          1.3042276434        2.0035325547        0.1756520557
 H          0.7643724213        1.2004994172       -1.3248099230
 H         -0.7583610227        1.2850806788        1.3263281457
 H         -1.1950202431        2.1486690255       -0.1588765758
  16
  -19.8806298500000       0.499552202753900      !
 C         -1.4818215975       -0.0017481647        0.2346254338
 C         -0.7308304977       -1.2446490864       -0.2404489074
 C          0.7219038027       -1.1712946177        0.2293169052
 O          1.3686963537        0.0016379150       -0.2311682807
 C          0.7190226798        1.1729576057        0.2293863999
 C         -0.7338448458        1.2429282293       -0.2404647512
 H         -1.5314841630       -0.0019121593        1.3261965392
 H         -2.5011076665       -0.0028881184       -0.1530768736
 H         -1.1906839176       -2.1514902334        0.1514893438
 H         -0.7469293637       -1.2868749346       -1.3309554580
 H          0.7590934936       -1.1985741992        1.3295516545
 H          1.3102016042       -2.0004959172       -0.1675347931
 H          0.7563081936        1.2004543922        1.3296124174
 H          1.3053017103        2.0035740060       -0.1675544350
 H         -1.1960382665        2.1485851865        0.1514801260
 H         -0.7499218395        1.2851436710       -1.3309536222
  16
  -19.8728819500000       1.373702134674833E-004 !
 C         -1.3775312222       -0.0241975555       -0.4000406689
 C         -0.7352193670       -1.1855756165        0.3533547014
 C          0.7648387438       -1.2215241340        0.0194056744
 O          1.2563885260        0.0354637127       -0.4190585979
 C          0.7336837659        1.1087555229        0.3402169857
 C         -0.7777849238        1.2923878770        0.1033223070
 H         -2.4581058160       -0.0239332613       -0.2607853082
 H         -1.1675162649       -0.1368408235       -1.4654724318
 H         -0.8805830348       -1.0400420301        1.4251596736
 H         -1.1933677385       -2.1330238044        0.0735331318
 H          1.3452800038       -1.5526084202        0.8942458567
 H          0.9680937805       -1.9004075824       -0.8113987288
 H          0.9387146766        0.9295941553        1.4053553062
 H          1.2970797356        1.9873959836        0.0225695508
 H         -1.2526645458        1.5878398344        1.0392100441
 H         -0.9526520663        2.0784150758       -0.6307390050
  16
  -19.8728813300000       1.372801170659637E-004 !
 C         -1.3781650895        0.0212440541       -0.3993739137
 C         -0.7743833985       -1.2947927222        0.1009676811
 C          0.7357026005       -1.1060666687        0.3422347326
 O          1.2571487608       -0.0329233852       -0.4180888495
 C          0.7615328893        1.2237823966        0.0168859419
 C         -0.7373877620        1.1830269906        0.3546658073
 H         -2.4585087228        0.0182641749       -0.2586241127
 H         -1.1699947502        0.1362329174       -1.4649292545
 H         -1.2501352315       -1.5955931484        1.0346494745
 H         -0.9444381302       -2.0787857068       -0.6363725415
 H          0.9368994115       -0.9237260882        1.4075453646
 H          1.3026879047       -1.9836991059        0.0284673043
 H          1.3427393566        1.5606365411        0.8889392983
 H          0.9595621352        1.9003496076       -0.8171270600
 H         -0.8795846910        1.0352165926        1.4265534820
 H         -1.1988206408        2.1296615366        0.0776542581
  16
  -19.8728809700000       1.372278301460501E-004 !
 C         -1.3702520752        0.0302807368        0.4245787641
 C         -0.7760155693       -1.2963739014       -0.0586107854
 C          0.7297111459       -1.1139732722       -0.3301305182
 O          1.2644325515       -0.0236053527        0.3957203045
 C          0.7609778923        1.2227424419       -0.0594460090
 C         -0.7443713344        1.1753312483       -0.3667096149
 H         -1.1416842623        0.1681095997        1.4832320974
 H         -2.4530974121        0.0243734343        0.3046426371
 H         -0.9334533589       -2.0647933433        0.6976863483
 H         -1.2682411484       -1.6159278026       -0.9774106175
 H          1.3020697382       -1.9842749738       -0.0057623690
 H          0.9124162115       -0.9566850539       -1.4027324510
 H          0.9758432612        1.9189254866        0.7539369087
 H          1.3252346160        1.5379955149       -0.9505371087
 H         -1.2003498638        2.1279134460       -0.1012196250
 H         -0.9075673097        1.0044834520       -1.4321707471
  16
  -19.8728786600000       1.368927959604537E-004 !
 C         -1.3711121971       -0.0341365683        0.4227015906
 C         -0.7405628154       -1.1762378611       -0.3690988638
 C          0.7633053907       -1.2217950764       -0.0557480730
 O          1.2655684206        0.0271534843        0.3943485143
 C          0.7259794085        1.1147985418       -0.3319723299
 C         -0.7786276402        1.2955193363       -0.0548448376
 H         -1.1459057648       -0.1742410806        1.4817224291
 H         -2.4534884956       -0.0302550955        0.2992516047
 H         -1.1956394635       -2.1306283420       -0.1082953808
 H         -0.8997871299       -1.0024238976       -1.4346867077
 H          0.9748800988       -1.9139862788        0.7621087836
 H          1.3303795503       -1.5418374136       -0.9433598691
 H          1.2976372284        1.9873174242       -0.0124181210
 H          0.9045185571        0.9549263758       -1.4047716520
 H         -0.9335594902        2.0598167256        0.7060370461
 H         -1.2731693037        1.6206810563       -0.9703022171
  16
  -19.8725506900000       9.675112368005250E-005 !
 C         -1.5451060244       -0.0018787372       -0.0274742205
 C         -0.6731353782       -1.2082972484        0.3500789434
 C          0.6668661757       -1.1300824272       -0.3722587232
 O          1.4329929215        0.0017263148        0.0251576963
 C          0.6505056662        1.1314739049        0.3956535842
 C         -0.6633547491        1.2068927990       -0.3734633782
 H         -2.2027323400        0.2424922205        0.8069914294
 H         -2.1718879645       -0.2479590619       -0.8849059855
 H         -0.4838796902       -1.2189622930        1.4247628751
 H         -1.1687657451       -2.1414341277        0.0862735756
 H          1.2928095476       -1.9966181480       -0.1443782165
 H          0.5034722004       -1.0960382373       -1.4592179509
 H          0.4488832744        1.0966636927        1.4761682293
 H          1.2818993061        1.9997506204        0.1898796547
 H         -1.1702172212        2.1386843910       -0.1268027768
 H         -0.4365181335        1.2185603451       -1.4408462907
  16
  -19.8725506600000       9.674805228271485E-005 !
 C         -1.5451779646       -0.0018768561       -0.0273840741
 C         -0.6605135612       -1.2084773472       -0.3735703707
 C          0.6531543914       -1.1298306060        0.3956642404
 O          1.4330911949        0.0017508392        0.0252421758
 C          0.6641872507        1.1316846316       -0.3723238648
 C         -0.6759519516        1.2065601569        0.3500760201
 H         -2.2022630989       -0.2477883871        0.8071224621
 H         -2.1725769560        0.2425515315       -0.8848623901
 H         -1.1652930165       -2.1415527117       -0.1272645598
 H         -0.4334815156       -1.2194965470       -1.4409231592
 H          0.4514170471       -1.0951776225        1.4762886477
 H          1.2864041089       -1.9965829724        0.1899274430
 H          1.2879836429        1.9998122191       -0.1443178315
 H          0.5008368564        1.0972730246       -1.4593627643
 H         -0.4867330504        1.2179192471        1.4247071803
 H         -1.1738669104        2.1383680259        0.0861533699
