  17
        -16.83581302
 C          1.3401337969        0.5316498249        0.5137771337
 C          0.0000135174       -0.0000223283        0.0000474696
 C          0.0735981580       -1.5226752374       -0.1361097315
 C         -0.3051088503        0.6201375528       -1.3655035421
 C         -1.1086437724        0.3709072381        0.9878266114
 H          1.3070135867        1.6138339375        0.6181250767
 H          1.5750652660        0.1007784200        1.4844685250
 H          2.1414970738        0.2782868513       -0.1766948504
 H          0.2895074656       -1.9822359151        0.8257781176
 H          0.8574110264       -1.8060888099       -0.8349570047
 H         -0.8709581566       -1.9195945947       -0.5012201090
 H         -1.2557628417        0.2544425918       -1.7472337302
 H         -0.3604755536        1.7037753326       -1.2890534749
 H          0.4725816529        0.3663982644       -2.0824415701
 H         -2.0701743422        0.0004016803        0.6395010782
 H         -1.1767893724        1.4509399565        1.0973265338
 H         -0.9088305993       -0.0609025640        1.9659492983
