  16
    -0.485916 !GC
 C          0.0000000000        0.0000000000        0.0000000000
 S          1.8181236769        0.0000000000        0.0000000000
 C          2.2583694351        1.7145598253        0.0000000000
 C          3.5643689105        2.1809389278       -0.0337653327
 C          3.8041506652        3.5446845328       -0.0051595034
 C          2.7556914912        4.4455177792        0.0471088527
 C          1.4507796366        3.9767731578        0.0662611123
 C          1.2003962179        2.6198137483        0.0383189681
 H         -0.3679545877        0.4800888584        0.9011513867
 H         -0.2843282106       -1.0467324493       -0.0066542118
 H         -0.3652507682        0.4906932757       -0.8964241738
 H          4.3972410094        1.4996625867       -0.0879253445
 H          4.8232966063        3.9003011669       -0.0313667833
 H          2.9515750069        5.5063186903        0.0657505519
 H          0.6247474167        4.6706884876        0.0981969842
 H          0.1884728846        2.2438410358        0.0417725626
  16
    -0.391242 !GC
 C          0.0000000000        0.0000000000        0.0000000000
 S          1.8181711152        0.0000000000        0.0000000000
 C          2.2561533094        1.7150628799        0.0000000000
 C          1.3344804352        2.7515658266       -0.0214487485
 C          1.7807273016        4.0627637020       -0.0197072347
 C          3.1339758913        4.3488365657        0.0022473077
 C          4.0527230682        3.3104828291        0.0234007573
 C          3.6192576904        2.0000816112        0.0223003533
 H         -0.3677392807        0.5168242659       -0.8810394969
 H         -0.3392596524        0.4990749645        0.9030543390
 H         -0.3118159305       -1.0383041413        0.0110913584
 H          0.2751679150        2.5541163803       -0.0379117034
 H          1.0577915020        4.8645165532       -0.0336395683
 H          3.4726380973        5.3732310389        0.0033846529
 H          5.1111489848        3.5217089375        0.0396174422
 H          4.3254616122        1.1835787172        0.0372630739
  16
    -0.389877 !GC
 C          0.0000000000        0.0000000000        0.0000000000
 S          1.8182201936        0.0000000000        0.0000000000
 C          2.2549580025        1.7156163474        0.0000000000
 C          1.3327720418        2.7519610230        0.0078445314
 C          1.7788783232        4.0633264685        0.0056936262
 C          3.1322756234        4.3498714486       -0.0029547825
 C          4.0514302676        3.3120603167       -0.0105634181
 C          3.6182010271        2.0019302620       -0.0091499433
 H         -0.3666852260       -1.0170494303       -0.0929288428
 H         -0.2010236668        0.5112502810       -0.9348072832
 H         -0.4472612018        0.5380875828        0.8300706040
 H          0.2733194135        2.5543074126        0.0152817930
 H          1.0558988002        4.8649973098        0.0130782235
 H          3.4708771645        5.3743055466       -0.0033106542
 H          5.1097891898        3.5235764700       -0.0180001611
 H          4.3247035559        1.1862975350       -0.0151850807
  16
    -0.383208 !GC
 C          0.0000000000        0.0000000000        0.0000000000
 S          1.8181693489        0.0000000000        0.0000000000
 C          2.2552206801        1.7155151527        0.0000000000
 C          1.3336222308        2.7526085662        0.0010951257
 C          1.7800551991        4.0636931884        0.0012731567
 C          3.1337244900        4.3495093581        0.0006774827
 C          4.0525024535        3.3109728332        0.0000297854
 C          3.6186481814        2.0007365514       -0.0001437130
 H         -0.3657057770        0.4853770019       -0.8994008547
 H         -0.3685817629        0.4844416083        0.8984499113
 H         -0.2833586802       -1.0473432307       -0.0005172329
 H          0.2742389733        2.5561421087        0.0015258466
 H          1.0571170762        4.8655945423        0.0030831657
 H          3.4724654906        5.3738504658        0.0003972610
 H          5.1109790611        3.5221094587       -0.0005734874
 H          4.3246397436        1.1839970618       -0.0034945088
  16
    -0.380633 !GC
 C          0.0000000000        0.0000000000        0.0000000000
 S          1.8180936495        0.0000000000        0.0000000000
 C          2.2552004529        1.7153260344        0.0000000000
 C          1.3329071210        2.7514486560       -0.0007807880
 C          1.7788824478        4.0627824349       -0.0026598409
 C          3.1324035250        4.3493067736       -0.0019721749
 C          4.0516192738        3.3112497715       -0.0004681248
 C          3.6184337720        2.0009477248       -0.0001684228
 H         -0.3131709381       -1.0378292554       -0.0226848387
 H         -0.3393541454        0.5103932539       -0.8965159073
 H         -0.3660688733        0.5069649421        0.8870508350
 H          0.2734384756        2.5536227183        0.0001214616
 H          1.0556997299        4.8643734202       -0.0030143152
 H          3.4709093668        5.3737607302       -0.0020583348
 H          5.1100676138        3.5225944754        0.0001211534
 H          4.3249133904        1.1848406121        0.0000666365
  16
    -0.375296 !GC
 C          0.0000000000        0.0000000000        0.0000000000
 S          1.8138890517        0.0000000000        0.0000000000
 C          2.1245450958        1.7549735288        0.0000000000
 C          1.4125272248        2.6264424758        0.8068929377
 C          1.6711013340        3.9861358439        0.7343531355
 C          2.6193447412        4.4734804043       -0.1471214657
 C          3.3157664676        3.5974089890       -0.9661343113
 C          3.0741459235        2.2395993409       -0.8921777438
 H         -0.3331984373        0.9980005300       -0.2616051683
 H         -0.2821785044       -0.2290523779        1.0249764998
 H         -0.3944069797       -0.7511430920       -0.6779144436
 H          0.6589282762        2.2521681778        1.4795281964
 H          1.1196040100        4.6644283490        1.3674725722
 H          2.8167560710        5.5334860392       -0.1991097730
 H          4.0555185242        3.9720165032       -1.6566837208
 H          3.6169994895        1.5458096242       -1.5166320822
  16
    -0.356290 !GC
 C          0.0000000000        0.0000000000        0.0000000000
 S          1.8180462112        0.0000000000        0.0000000000
 C          2.2574167137        1.7148243097        0.0000000000
 C          3.5623351118        2.1821654347       -0.0544103317
 C          3.8016324042        3.5459575046       -0.0221879477
 C          2.7534781010        4.4459465096        0.0513354388
 C          1.4494379360        3.9762048184        0.0901224215
 C          1.1997480250        2.6193327529        0.0607785721
 H         -0.3134057180        0.5622792505       -0.8721694102
 H         -0.2844311441        0.5398997002        0.8965858434
 H         -0.4186258205       -1.0024525162        0.0077134182
 H          4.3946478130        1.5016513675       -0.1259081074
 H          4.8199826371        3.9024592551       -0.0619537821
 H          2.9487868539        5.5068378652        0.0712072499
 H          0.6235038911        4.6692234190        0.1376698141
 H          0.1884447002        2.2427546020        0.0789517686
  16
    -0.347559 !GC
 C          0.0000000000        0.0000000000        0.0000000000
 S          1.8181009671        0.0000000000        0.0000000000
 C          2.2576454271        1.7148009589        0.0000000000
 C          3.5636757716        2.1812118077       -0.0293571635
 C          3.8031281392        3.5450603315        0.0003421195
 C          2.7543289503        4.4458651430        0.0479219241
 C          1.4494899957        3.9769207905        0.0621037827
 C          1.1994294803        2.6199736376        0.0344274789
 H         -0.3145599222       -1.0373499530       -0.0261190127
 H         -0.3389677758        0.5138711810       -0.8943952969
 H         -0.3650413306        0.5042395891        0.8889666527
 H          4.3967069025        1.4997978962       -0.0814131291
 H          4.8222650753        3.9009045013       -0.0219875135
 H          2.9498679549        5.5067254419        0.0667127376
 H          0.6231108580        4.6706542990        0.0901801430
 H          0.1875208123        2.2441805298        0.0340780186
  16
    -0.226917 !GC
 C          0.0000000000        0.0000000000        0.0000000000
 S          1.8139591998        0.0000000000        0.0000000000
 C          2.1230270866        1.7551183780        0.0000000000
 C          3.1247203866        2.3241741310       -0.7684092007
 C          3.3265835909        3.6944007997       -0.7164889652
 C          2.5555061661        4.4857989784        0.1157999428
 C          1.5765717254        3.9055355132        0.9084384213
 C          1.3578672695        2.5428065620        0.8529534090
 H         -0.3860702322       -0.2499931630        0.9832402664
 H         -0.2824548684       -0.7583703728       -0.7270046523
 H         -0.3416364331        0.9736995039       -0.3349422378
 H          3.7499786460        1.7063558231       -1.3914726690
 H          4.1014839287        4.1386417605       -1.3223964245
 H          2.7198991182        5.5520072973        0.1548515182
 H          0.9796726986        4.5164794204        1.5680362998
 H          0.6000158748        2.0777171730        1.4659589274
  16
    -0.196245 !GC
 C          0.0000000000        0.0000000000        0.0000000000
 S          1.8139044439        0.0000000000        0.0000000000
 C          2.1227963840        1.7551285993        0.0000000000
 C          3.1075866040        2.3277780785       -0.7873955225
 C          3.3100406025        3.6978366576       -0.7340531131
 C          2.5558334094        4.4856542735        0.1170706492
 C          1.5940552505        3.9018011411        0.9278481675
 C          1.3752072884        2.5392314924        0.8716717946
 H         -0.3849198323       -0.7094889132       -0.7253312921
 H         -0.2270674567        1.0154341790       -0.3132476546
 H         -0.3956327950       -0.1780461160        0.9955949688
 H          3.7209236366        1.7127715017       -1.4249066663
 H          4.0730259377        4.1446314990       -1.3530203307
 H          2.7201921915        5.5518597545        0.1565711405
 H          1.0100388377        4.5099164132        1.6012548724
 H          0.6304587838        2.0712216780        1.4981181268
  16
    -0.087396 !GC
 C          0.0000000000        0.0000000000        0.0000000000
 S          1.8138817340        0.0000000000        0.0000000000
 C          2.1220507237        1.7553156293        0.0000000000
 C          3.1096497226        2.3273863854       -0.7841852174
 C          3.3125552314        3.6974156196       -0.7300598797
 C          2.5549942970        4.4858154258        0.1176535253
 C          1.5899869895        3.9024309288        0.9248197723
 C          1.3716336608        2.5398503272        0.8688520017
 H         -0.3318170227        0.9975360084       -0.2650245842
 H         -0.2825585218       -0.2250336984        1.0260045933
 H         -0.3954257100       -0.7530816370       -0.6752422077
 H          3.7243514457        1.7118956192       -1.4200922037
 H          4.0780026544        4.1439145227       -1.3461580675
 H          2.7191452831        5.5520458478        0.1573032160
 H          1.0031110984        4.5108622631        1.5955158688
 H          0.6243568813        2.0725306237        1.4926561974
