  16
  -22.2892161700000       0.165484651617697      !
 C         -2.6947704482       -0.9668869733        0.0011134034
 S         -1.8220256791        0.6279702526       -0.0005037443
 C         -0.1072885451        0.1892888065       -0.0000527147
 C          0.7961495195        1.2492241409        0.0001935776
 C          2.1540233953        1.0015692942        0.0004847983
 C          2.6247969651       -0.3028256462        0.0004132982
 C          1.7248659541       -1.3536009872       -0.0003719538
 C          0.3603687983       -1.1166292342       -0.0006498320
 H         -2.4441170464       -1.5206158418        0.9002341370
 H         -2.4452590186       -1.5219112004       -0.8975137545
 H         -3.7498828812       -0.7138101299        0.0015899176
 H          0.4175802404        2.2604660903       -0.0000747548
 H          2.8467699627        1.8292722259        0.0002542892
 H          3.6861674859       -0.4967493985        0.0005649815
 H          2.0817054043       -2.3725970356       -0.0009473189
 H         -0.3205771330       -1.9518683889       -0.0015543806
  16
  -22.2892160800000       0.165468892017681      !
 C         -2.6948553642       -0.9669521595        0.0032129888
 S         -1.8221021936        0.6278690293       -0.0017520873
 C         -0.1072802668        0.1894527771       -0.0008194264
 C          0.7962977363        1.2493158975        0.0006181354
 C          2.1541256589        1.0015921567        0.0015862889
 C          2.6248189266       -0.3028901238        0.0010876805
 C          1.7248769816       -1.3535763632       -0.0006183197
 C          0.3603723083       -1.1165437098       -0.0016423791
 H         -2.4475659824       -1.5230222463       -0.8953637715
 H         -3.7496614432       -0.7132317297        0.0057381696
 H         -2.4425070604       -1.5199122213        0.9022977949
 H          0.4178366151        2.2604734517        0.0008267261
 H          2.8468857029        1.8292492743        0.0028203798
 H          3.6861725883       -0.4969602356        0.0022249325
 H          2.0817236384       -2.3725370109       -0.0007608506
 H         -0.3205694075       -1.9517399842       -0.0028579853
  16
  -22.2892159700000       0.165449632322827      !
 C         -2.6949553033       -0.9669386620        0.0036857863
 S         -1.8221005911        0.6278248361       -0.0020482725
 C         -0.1072612036        0.1894717200       -0.0009006515
 C          0.7963241535        1.2493325042        0.0007020819
 C          2.1541485902        1.0016053721        0.0018242338
 C          2.6248333690       -0.3028793210        0.0012665003
 C          1.7248874436       -1.3535591785       -0.0006934377
 C          0.3603861639       -1.1165242478       -0.0018593646
 H         -3.7497397833       -0.7131996086        0.0064639060
 H         -2.4423103546       -1.5196007831        0.9028807896
 H         -2.4479117480       -1.5233246799       -0.8947551137
 H          0.4178763814        2.2604864949        0.0007591950
 H          2.8469106874        1.8292573301        0.0031846088
 H          3.6861827612       -0.4969595310        0.0026169819
 H          2.0817236440       -2.3725196608       -0.0007047325
 H         -0.3205540977       -1.9517217243       -0.0032497562
  16
  -22.2892123300000       0.164813574373960      !
 C         -2.6431769923        1.1022263679       -0.0008135894
 S         -1.8511275835       -0.5341370106        0.0007888412
 C         -0.1165692586       -0.1832798267        0.0002665705
 C          0.4169681270        1.0971122355        0.0005189027
 C          1.7917963623        1.2640567613        0.0000635852
 C          2.6367502998        0.1685994598       -0.0006055539
 C          2.1000472539       -1.1101606988       -0.0007971293
 C          0.7313155989       -1.2881586820       -0.0003410699
 H         -2.3668810465        1.6441522186        0.8979525979
 H         -3.7093650929        0.9010959010       -0.0016737620
 H         -2.3652202368        1.6430999335       -0.8996977668
 H         -0.2206676745        1.9658765973        0.0012702832
 H          2.2002650537        2.2634626886        0.0003843228
 H          3.7066199397        0.3081902737       -0.0009905327
 H          2.7497980416       -1.9719958716       -0.0013750347
 H          0.3007520144       -2.2784546430       -0.0006087547
  16
  -22.2892123000000       0.164808342310350      !
 C         -2.6431971650        1.1022258958        0.0014756049
 S         -1.8511446966       -0.5341237726       -0.0006529704
 C         -0.1165727608       -0.1832891125       -0.0002199655
 C          0.4169787108        1.0971013942        0.0010128853
 C          1.7918002339        1.2640530902        0.0012261933
 C          2.6367593139        0.1686099059        0.0001827160
 C          2.1000626233       -1.1101638308       -0.0011176484
 C          0.7313313853       -1.2881669297       -0.0013341605
 H         -2.3662170617        1.6446100115       -0.8968422589
 H         -2.3657499701        1.6424876656        0.9009375381
 H         -3.7094074496        0.9011462183        0.0014687559
 H         -0.2206518301        1.9658546432        0.0018822631
 H          2.2002732306        2.2634590895        0.0024048041
 H          3.7066302693        0.3082187119        0.0005065603
 H          2.7498101851       -1.9720014743       -0.0018832499
 H          0.3007892226       -2.2784685630       -0.0023066893
  16
  -22.2892122800000       0.164804854360837      !
 C         -2.6429843079        1.1022823152       -0.0013653795
 S         -1.8511792420       -0.5341886064        0.0010740615
 C         -0.1166187472       -0.1832539887        0.0004970271
 C          0.4169826018        1.0971407215        0.0004567106
 C          1.7918200529        1.2640596219       -0.0002246525
 C          2.6367412546        0.1685951083       -0.0008405377
 C          2.1000011991       -1.1101617844       -0.0007119319
 C          0.7312678358       -1.2881397447       -0.0000499850
 H         -3.7091450523        0.9011865244       -0.0025416394
 H         -2.3647001621        1.6426800906       -0.9004304144
 H         -2.3669159582        1.6446141684        0.8972543866
 H         -0.2206281449        1.9659087130        0.0010865491
 H          2.2003393478        2.2634474317       -0.0000243518
 H          3.7066240555        0.3081704113       -0.0012792328
 H          2.7497296646       -1.9720151911       -0.0012215697
 H          0.3007052248       -2.2784326382       -0.0003347749
  16
  -22.2864823300000       9.170052996647983E-003 !
 C         -2.5141103838       -0.2079030567        1.0139835256
 S         -1.8508277346        0.2390360072       -0.6255746871
 C         -0.1044167526        0.0749821333       -0.2504423382
 C          0.5988373662        1.1703970367        0.2220615609
 C          1.9437058484        1.0369526498        0.5215543431
 C          2.5770721977       -0.1823263856        0.3443383291
 C          1.8680159129       -1.2713905181       -0.1355862620
 C          0.5229453622       -1.1453729017       -0.4373123304
 H         -2.1500063919        0.5004188991        1.7512862113
 H         -2.2050537482       -1.2186364547        1.2606036543
 H         -3.5935370558       -0.1494201566        0.9300018591
 H          0.0923287398        2.1151387196        0.3492267783
 H          2.4959260284        1.8872469631        0.8912990153
 H          3.6257689509       -0.2833070616        0.5780736446
 H          2.3610359513       -2.2207769038       -0.2779107619
 H         -0.0418222777       -1.9829989903       -0.8175933713
