  12
        -13.73738857
 C         -1.8812246651       -0.5327470042        0.2984868902
 C         -0.9918436789        0.3625475982       -0.5424998325
 S          0.6710989912        0.6033210488        0.1806052319
 C          1.4076440160       -1.0282102068       -0.1361121555
 H         -1.9569308807       -0.1426512078        1.3107084827
 H         -2.8764286290       -0.5720421642       -0.1381001254
 H         -1.4851483172       -1.5443494379        0.3435653122
 H         -1.4025293666        1.3691501237       -0.6086162436
 H         -0.8510281540       -0.0336973634       -1.5479061687
 H          0.9058142570       -1.7813683653        0.4626748294
 H          2.4489269971       -0.9540946158        0.1571792107
 H          1.3303675464       -1.2535172870       -1.1953368885
