  6
    -0.098319 !GC
 C          0.0000000000        0.0000000000        0.0000000000
 O          1.4068657916        0.0000000000        0.0000000000
 H         -0.2640203427        1.0508005476        0.0000000000
 H         -0.3870864353       -0.4607637023        0.9188320361
 H         -0.4492612140       -0.4835978759       -0.8725848079
 H          1.7133516974       -0.4472069917       -0.8041759922
  6
    -0.032800 !GC
 C          0.0000000000        0.0000000000        0.0000000000
 O          1.4068751279        0.0000000000        0.0000000000
 H         -0.3554131410        1.0288504989        0.0000000000
 H         -0.2955957159       -0.4718127065        0.9409034788
 H         -0.4491948291       -0.5407033833       -0.8384492542
 H          1.7133656132        0.9200000484       -0.0056183753
  6
    -0.004433 !GC
 C          0.0000000000        0.0000000000        0.0000000000
 O          1.4122735054        0.0000000000        0.0000000000
 H         -0.2170555260        1.0612175994        0.0000000000
 H         -0.4886595720       -0.4729261788        0.8625524445
 H         -0.4005301085       -0.4282319940       -0.9226366981
 H          1.7303701666        0.4390006442        0.8009426410
  6
    -0.004339 !GC
 C          0.0000000000        0.0000000000        0.0000000000
 O          1.4127359027        0.0000000000        0.0000000000
 H         -0.2189243131        1.0607613826        0.0000000000
 H         -0.4018361142       -0.4287447807        0.9219325062
 H         -0.4891263044       -0.4723758817       -0.8623322247
 H          1.7324797913        0.4382411911       -0.8007826926
