  6
  -8.23340576000000       0.338437735522708      !
 C         -0.7249381556       -0.0138210415       -0.0000121736
 O          0.6847608682        0.0650737059       -0.0000022376
 H         -1.0957099520       -0.5250173701       -0.8924947502
 H         -1.0923976361        1.0106129278       -0.0000736292
 H         -1.0959033192       -0.5247381851        0.8926140554
 H          1.0530011250       -0.8291025456        0.0001349044
  6
  -8.23338481000000       0.331017403047689      !
 C         -0.7218987109       -0.0671713375       -0.0000144347
 O          0.6877186334        0.0117188387       -0.0000044992
 H         -0.9728848903       -1.1260341983       -0.0020903732
 H         -1.1468901812        0.4012658118       -0.8918602041
 H         -1.1465666687        0.3974755981        0.8940115298
 H          0.9521639238        0.9416967106        0.0001824697
  6
  -8.23338346000000       0.330544861429603      !
 C         -0.7250486496       -0.0138486341        0.0000144662
 O          0.6849531367        0.0650630576        0.0000244044
 H         -1.0969769573       -0.5250614536        0.8920181544
 H         -1.0969249587       -0.5241886780       -0.8924474672
 H         -1.0923188851        1.0105579860        0.0002296799
 H          1.0534757318       -0.8290552065       -0.0003601285
