  13
  -19.9610354700000       0.501325385934329      !
 C         -1.8633682094        0.0062792225       -0.0001613426
 C         -1.1701100178       -1.1935859941       -0.0000906461
 C          0.2111084985       -1.2036944272       -0.0001298311
 C          0.9155554197       -0.0027899639        0.0000347984
 C          0.2205530198        1.2011515427        0.0002700601
 C         -1.1632198670        1.1998488411        0.0001196856
 O          2.2754407041       -0.0596676715       -0.0001011111
 H         -2.9422446217        0.0097687785       -0.0003992052
 H         -1.7079358013       -2.1294129857        0.0018502986
 H          0.7666133649       -2.1284465210        0.0009189614
 H          0.7604199629        2.1372332637       -0.0007315487
 H         -1.6948297016        2.1395158610       -0.0006851149
 H          2.6538301666        0.8325620529        0.0001424747
  13
  -19.9610304600000       0.498674614065671      !
 C         -1.8630371538        0.0314073749        0.0000969418
 C         -1.1871130321       -1.1761149668       -0.0001104283
 C          0.1963115925       -1.2054464468       -0.0003499834
 C          0.9153709904       -0.0157644269       -0.0000510039
 C          0.2352645920        1.1991944568        0.0000437575
 C         -1.1458269412        1.2170267264        0.0001091438
 O          2.2761328359        0.0137207177        0.0001768017
 H         -2.9416667146        0.0498261247       -0.0003182503
 H         -1.7376375917       -2.1048636120       -0.0004379971
 H          0.7173269337       -2.1524361129       -0.0006352828
 H          0.8093352458        2.1125719584        0.0001992250
 H         -1.6646599390        2.1635924468        0.0010254068
 H          2.6367923824       -0.8858975453        0.0004773889
