  16
    -0.134324 !GC
 C          0.0000000000        0.0000000000        0.0000000000
 C          1.3653068132        0.0000000000        0.0000000000
 C          2.0689062590        1.2161868805        0.0000000000
 C          1.3641694570        2.4317653379       -0.0002822183
 C         -0.0011713103        2.4305360760       -0.0012085193
 C         -0.7237372339        1.2149247503        0.0000783651
 N         -2.0592769183        1.2143070328       -0.0017262844
 N          3.4570473352        1.2167642336        0.0015360868
 O          4.0635410203        0.1376421915        0.0017382855
 O          4.0626849682        2.2963783868        0.0002758537
 H         -0.5391751431       -0.9335670522        0.0002681270
 H          1.9305635269       -0.9188966449        0.0088455715
 H          1.9286212986        3.3512716870       -0.0001058377
 H         -0.5412537496        3.3636253938       -0.0042425886
 H         -2.5670568309        2.0821833618       -0.0022350834
 H         -2.5661672562        0.3461005389       -0.0009263052
  16
    -0.105220 !GC
 C          0.0000000000        0.0000000000        0.0000000000
 C          1.3653565225        0.0000000000        0.0000000000
 C          2.0689734378        1.2161983460        0.0000000000
 C          1.3641896631        2.4317590833       -0.0005925620
 C         -0.0011850794        2.4304990560       -0.0016055048
 C         -0.7237590576        1.2149021303       -0.0007333376
 N         -2.0593131674        1.2142581228       -0.0013769460
 N          3.4571381863        1.2167855165        0.0013333251
 O          4.0627764595        2.2964095464        0.0047018873
 O          4.0636474944        0.1376562074        0.0061814719
 H         -0.5392115908       -0.9335622521        0.0004444079
 H          1.9306227357       -0.9189429225        0.0062947226
 H          1.9286298667        3.3512735153       -0.0018461085
 H         -0.5412976624        3.3635688208       -0.0029123257
 H         -2.5671033583        2.0821422721       -0.0025451900
 H         -2.5661612421        0.3460523270       -0.0003457047
  16
    -0.001775 !GC
 C          0.0000000000        0.0000000000        0.0000000000
 C          1.3652521835        0.0000000000        0.0000000000
 C          2.0688328623        1.2161771857        0.0000000000
 C          1.3641723467        2.4317516126        0.0002056381
 C         -0.0011011328        2.4305481401        0.0002328726
 C         -0.7236793080        1.2149471476        0.0011631720
 N         -2.0592178018        1.2143626573       -0.0007812976
 N          3.4569244713        1.2167922085        0.0007693485
 O          4.0634023168        0.1377480980        0.0029420983
 O          4.0625457431        2.2963366597        0.0028118530
 H         -0.5391481302       -0.9335873157       -0.0007840246
 H          1.9305136190       -0.9189195761        0.0048104094
 H          1.9286252030        3.3512238563        0.0029310089
 H         -0.5411182654        3.3636637023       -0.0021050653
 H         -2.5661979972        0.3460595072       -0.0028162399
 H         -2.5669783868        2.0822501525       -0.0023733694
