  11
    -0.223881 !GC
 C          0.0000000000        0.0000000000        0.0000000000
 C          1.5258252763        0.0000000000        0.0000000000
 C          2.0544611972        1.4235066839        0.0000000000
 Cl         3.8532789159        1.4383873675       -0.0097592537
 H         -0.3593838539        0.5072464683        0.8891961495
 H         -0.3929356596        0.5138563181       -0.8741732609
 H         -0.3816962073       -1.0174471052        0.0032350108
 H          1.8961933358       -0.5240139380        0.8822073035
 H          1.8963560314       -0.5236937858       -0.8824310981
 H          1.7500918551        1.9641279132        0.8946513552
 H          1.7412535392        1.9665250186       -0.8901517332
  11
    -0.222518 !GC
 C          0.0000000000        0.0000000000        0.0000000000
 C          1.5258561869        0.0000000000        0.0000000000
 C          2.0545127108        1.4236006440        0.0000000000
 Cl         3.8533590762        1.4393104370       -0.0091117413
 H         -0.3599223665        0.5130266287       -0.8859580922
 H         -0.3814637855       -1.0175701931       -0.0097059666
 H         -0.3925966360        0.5079966248        0.8776815112
 H          1.8959315186       -0.5244173329        0.8821849923
 H          1.8963919856       -0.5235781019       -0.8825703062
 H          1.7502071056        1.9634965778        0.8948946810
 H          1.7408558212        1.9673712173       -0.8894294364
  11
    -0.218044 !GC
 C          0.0000000000        0.0000000000        0.0000000000
 C          1.5276992153        0.0000000000        0.0000000000
 C          2.0034808119        1.4423811807        0.0000000000
 Cl         1.5617520452        2.2478797122       -1.5435544516
 H         -0.3757299547        0.5018656226        0.8870908298
 H         -0.3855017500        0.5112638960       -0.8771829704
 H         -0.3706035365       -1.0200376530       -0.0017192428
 H          1.8997970825       -0.5023324821        0.8942152524
 H          1.9019676781       -0.5441435959       -0.8676689857
 H          3.0872492130        1.5079331073        0.0837793217
 H          1.5353878420        2.0178060966        0.7977640948
  11
    -0.215900 !GC
 C          0.0000000000        0.0000000000        0.0000000000
 C          1.5276424407        0.0000000000        0.0000000000
 C          2.0033093152        1.4425270234        0.0000000000
 Cl         1.5766254507        2.2461122233        1.5486698681
 H         -0.3597295179        0.5134074541       -0.8850997639
 H         -0.3851494761       -1.0154569784       -0.0058908472
 H         -0.3861300617        0.5127954393        0.8773402146
 H          1.9021595241       -0.5451275327        0.8670253522
 H          1.8989000313       -0.5015227214       -0.8950263626
 H          1.5293566938        2.0199436149       -0.7926920803
 H          3.0862377732        1.5069617237       -0.0928353029
  11
    -0.049284 !GC
 C          0.0000000000        0.0000000000        0.0000000000
 C          1.5277302521        0.0000000000        0.0000000000
 C          2.0035293465        1.4424758451        0.0000000000
 Cl         1.5626952025        2.2484871753       -1.5435801109
 H         -0.3762699641        0.5139117810       -0.8802415195
 H         -0.3740208799       -1.0188032393       -0.0059446879
 H         -0.3815243835        0.5050645869        0.8824906416
 H          1.8995355259       -0.5027364257        0.8942032379
 H          1.9020042429       -0.5440317832       -0.8678105927
 H          3.0871874651        1.5073849297        0.0833933902
 H          1.5364914810        2.0181301505        0.7981004691
  11
    -0.048609 !GC
 C          0.0000000000        0.0000000000        0.0000000000
 C          1.5277604057        0.0000000000        0.0000000000
 C          2.0036983054        1.4425012637        0.0000000000
 Cl         1.5764026941        2.2465279451        1.5483386038
 H         -0.3632039307        0.5091938144        0.8860306793
 H         -0.3868770988        0.5111928630       -0.8780736035
 H         -0.3812814264       -1.0170351675        0.0021405930
 H          1.9021009845       -0.5448974269        0.8672190650
 H          1.8991700691       -0.5020264084       -0.8947248268
 H          1.5301815395        2.0194439948       -0.7934009465
 H          3.0867661745        1.5065936320       -0.0922312037
  11
    -0.046850 !GC
 C          0.0000000000        0.0000000000        0.0000000000
 C          1.5276189739        0.0000000000        0.0000000000
 C          2.0031268727        1.4425039802        0.0000000000
 Cl         1.5720459457        2.2463458993        1.5474434158
 H         -0.3706075550       -1.0201097985       -0.0024241990
 H         -0.3855218830        0.5076918782        0.8792237676
 H         -0.3751073914        0.5054910446       -0.8853797754
 H          1.9025441106       -0.5446709290        0.8672165487
 H          1.8988146621       -0.5016885790       -0.8949870760
 H          1.5312571988        2.0198039304       -0.7942290315
 H          3.0864140334        1.5069181459       -0.0894185303
  11
    -0.045262 !GC
 C          0.0000000000        0.0000000000        0.0000000000
 C          1.5277226821        0.0000000000        0.0000000000
 C          2.0036632561        1.4424041936        0.0000000000
 Cl         1.5587610365        2.2501447864       -1.5413444191
 H         -0.3648577343       -1.0223454823       -0.0085874685
 H         -0.3851293312        0.4989527041        0.8844710456
 H         -0.3816290597        0.5094250389       -0.8799590156
 H          1.8994120790       -0.5027979994        0.8940452863
 H          1.9020528535       -0.5439800223       -0.8677160744
 H          3.0875171529        1.5071947631        0.0812328572
 H          1.5382451755        2.0170116152        0.7998206106
