  11
  -14.5457792500000       0.123797689263816      !
 C         -2.5316046613        0.0760162380       -0.0000462309
 C         -1.1231324607       -0.5107189524        0.0000819370
 C         -0.0874295139        0.5997227202        0.0000462208
 Cl         1.5787129634       -0.0792648180       -0.0000202042
 H         -2.6890654778        0.6905857441       -0.8822994926
 H         -3.2663905262       -0.7234958108       -0.0002279501
 H         -2.6892139333        0.6908213253        0.8821580788
 H         -0.9827118699       -1.1368768745        0.8824821356
 H         -0.9827071774       -1.1367287232       -0.8824021042
 H         -0.1634697697        1.2187045506        0.8924688453
 H         -0.1634303397        1.2186243320       -0.8924451073
  11
  -14.5457792500000       0.123797689263816      !
 C         -2.5315097203        0.0760454731       -0.0000037510
 C         -1.1230715948       -0.5107765948        0.0000014105
 C         -0.0874538449        0.5997741683       -0.0000261077
 Cl         1.5786535134       -0.0792808515        0.0000130450
 H         -2.6889641433        0.6908359692        0.8821759338
 H         -2.6889558256        0.6908139365       -0.8821709962
 H         -3.2663553898       -0.7234556869       -0.0000758034
 H         -0.9826480059       -1.1368871722        0.8824729056
 H         -0.9826441512       -1.1368045889       -0.8825133434
 H         -0.1634263758        1.2186759015        0.8924644561
 H         -0.1634708103        1.2187455827       -0.8924730021
  11
  -14.5457791400000       0.123783279874062      !
 C         -2.5315077385        0.0759230791       -0.0001836224
 C         -1.1229388846       -0.5105813608        0.0002762859
 C         -0.0873825015        0.6000452607        0.0002184955
 Cl         1.5785681711       -0.0794099160       -0.0001327028
 H         -3.2660902639       -0.7237730794       -0.0002778071
 H         -2.6893189050        0.6906334447        0.8820389019
 H         -2.6891219907        0.6907875858       -0.8824122997
 H         -0.9826047385       -1.1363725102        0.8830682192
 H         -0.9822944783       -1.1368951758       -0.8820797957
 H         -0.1630106348        1.2188874224        0.8928120698
 H         -0.1634770359        1.2190975852       -0.8921894560
  11
  -14.5456216200000       0.104778169316446      !
 C         -1.9615179038       -0.1692569050        0.5053694240
 C         -1.1832803098       -0.1670692523       -0.8049203917
 C          0.0993519631        0.6404272749       -0.7174921123
 Cl         1.2785789406       -0.1289333645        0.4070221477
 H         -1.3584755712       -0.5967137559        1.3028808814
 H         -2.2367758438        0.8440916763        0.7873445848
 H         -2.8676460884       -0.7598558192        0.4047872446
 H         -0.9471653124       -1.1917271179       -1.0958706253
 H         -1.7938321218        0.2776465626       -1.5930669135
 H         -0.0822512595        1.6387647459       -0.3233915841
 H          0.6037620776        0.6991452064       -1.6799307599
  11
  -14.5456215600000       0.104771516984576      !
 C         -1.9604973570       -0.1697298023        0.5055872296
 C         -1.1827670242       -0.1663717685       -0.8053092888
 C          0.0997541109        0.6410988417       -0.7178403634
 Cl         1.2777693308       -0.1292839855        0.4071943864
 H         -2.2354682587        0.8432657853        0.7894924307
 H         -2.8670429153       -0.7596857421        0.4043816877
 H         -1.3576867305       -0.5987359436        1.3025805596
 H         -0.9459508742       -1.1905523593       -1.0972937368
 H         -1.7931812771        0.2789716634       -1.5932445144
 H         -0.0817516377        1.6389819489       -0.3226746921
 H          0.6041051346        0.7007600975       -1.6803586236
  11
  -14.5456215400000       0.104769299634477      !
 C         -1.9613270113       -0.1690865404       -0.5054188006
 C         -1.1832910877       -0.1673408571        0.8049833110
 C          0.0992775652        0.6402251338        0.7176262554
 Cl         1.2785326711       -0.1288152028       -0.4070801757
 H         -2.8674231622       -0.7597561973       -0.4050213900
 H         -2.2366193307        0.8443401442       -0.7870751408
 H         -1.3582637076       -0.5962470590       -1.3030733546
 H         -1.7938521141        0.2771754402        1.5932519560
 H         -0.9471351367       -1.1920812590        1.0956331883
 H          0.6036467106        0.6987497883        1.6800988390
 H         -0.0823696450        1.6386295925        0.3237142887
  11
  -14.5456215400000       0.104769299634477      !
 C         -1.9612119028       -0.1701794063        0.5053374360
 C         -1.1824687441       -0.1656993724       -0.8049169280
 C          0.1001054547        0.6418848066       -0.7174906397
 Cl         1.2778140195       -0.1296892396        0.4069927809
 H         -2.8671726797       -0.7608016944        0.4043721311
 H         -1.3583913546       -0.5984778936        1.3026175546
 H         -2.2369291120        0.8425871314        0.7886468875
 H         -0.9460762067       -1.1897364425       -1.0974331222
 H         -1.7925898729        0.2797180279       -1.5928555686
 H         -0.0816692274        1.6394359098       -0.3216066353
 H          0.6050536471        0.7025142047       -1.6796331302
  11
  -14.5456215200000       0.104767082331109      !
 C         -1.9615316235       -0.1691889005       -0.5054025187
 C         -1.1833309289       -0.1671721856        0.8049543010
 C          0.0993490756        0.6402556373        0.7176002998
 Cl         1.2786065567       -0.1288507969       -0.4070672957
 H         -1.3585887996       -0.5966236728       -1.3030159985
 H         -2.8677174924       -0.7597154816       -0.4049013785
 H         -2.2366951363        0.8442250851       -0.7872724194
 H         -1.7938294222        0.2774557726        1.5932127759
 H         -0.9472096231       -1.1918704137        1.0957773922
 H          0.6037483948        0.6987718752        1.6800721176
 H         -0.0822623213        1.6386655987        0.3236638208
  11
  -14.5456215100000       0.104765973697219      !
 C         -1.9614523545       -0.1691680407       -0.5054164946
 C         -1.1833433295       -0.1672053864        0.8049792575
 C          0.0993306432        0.6402194590        0.7176226505
 Cl         1.2785818192       -0.1288312852       -0.4070783502
 H         -2.2366680004        0.8442232509       -0.7872775324
 H         -1.3584380689       -0.5965325127       -1.3030024512
 H         -2.8676053761       -0.7597353207       -0.4049577187
 H         -1.7938758295        0.2773573542        1.5932529941
 H         -0.9471572790       -1.1919010646        1.0957343233
 H          0.6037705916        0.6987630949        1.6800554302
 H         -0.0822874979        1.6386258274        0.3237229135
