  8
    -0.000001 !GC
 C          0.0000000000        0.0000000000        0.0000000000
 C          1.5070597700        0.0000000000        0.0000000000
 Cl         2.1521592062        1.6732608085        0.0000000000
 Cl         2.1507982024       -0.8432597190       -1.4450561581
 H         -0.4098446017       -1.0062201221        0.0032520930
 H         -0.3305762715        0.5245356326        0.8924509993
 H         -0.3586941208        0.5218587504       -0.8834298104
 H          1.9365104342       -0.4988863079        0.8688242655
  8
    -0.000001 !GC
 C          0.0000000000        0.0000000000        0.0000000000
 C          1.5071265117        0.0000000000        0.0000000000
 Cl         2.1528268046        1.6726387363        0.0000000000
 Cl         2.1519020368       -0.8353737821       -1.4490279300
 H         -0.4110652027        0.4960767361        0.8748929072
 H         -0.3571556656        0.5063311090       -0.8926337699
 H         -0.3308400298       -1.0353418443       -0.0108335796
 H          1.9380054975       -0.5010518861        0.8669518227
