  14
  -20.7854689400000       5.136697345463204E-002 !
 C          1.1016836094        1.4357531547        0.2616411102
 C          0.7449884286        0.0594058235       -0.2848476005
 C          1.9376290627       -0.8829882935       -0.3169910947
 O         -0.2495669456       -0.5500216751        0.5852067887
 C         -1.5118759480       -0.3585906300        0.3290797919
 O         -1.9865309217        0.2809599737       -0.5770807612
 H          1.4837582195        1.3448431887        1.2749725210
 H          1.8593009173        1.8907086996       -0.3679614241
 H          0.2218259100        2.0753755425        0.2700536617
 H          0.2920145124        0.1575913267       -1.2789668132
 H          2.3465435239       -0.9919534588        0.6832797673
 H          2.7001706463       -0.4796329605       -0.9749781854
 H          1.6359897861       -1.8612507376       -0.6805590875
 H         -2.1236952782       -0.8864573364        1.0776530925
  14
  -20.7854687300000       5.135555990693483E-002 !
 C          1.1007300688        1.4356874411        0.2611320262
 C          0.7450761422        0.0589811798       -0.2850663997
 C          1.9381620098       -0.8828356450       -0.3163738152
 O         -0.2495018795       -0.5507086336        0.5847672258
 C         -1.5117908043       -0.3585570504        0.3290524108
 O         -1.9863480719        0.2819050124       -0.5765238802
 H          0.2206832123        2.0750650443        0.2685418119
 H          1.4819773819        1.3453411029        1.2748148132
 H          1.8587497353        1.8905386226       -0.3680727935
 H          0.2924750614        0.1565813646       -1.2794151976
 H          2.7000118398       -0.4800803940       -0.9754534656
 H          1.6369054334       -1.8618805218       -0.6781099595
 H          2.3478186005       -0.9899549075        0.6837059405
 H         -2.1236962358       -0.8868586079        1.0772643913
  14
  -20.7854684600000       5.134088907188501E-002 !
 C          1.1008138694        1.4356887845        0.2611178466
 C          0.7450635305        0.0589855796       -0.2850539616
 C          1.9381761534       -0.8828165707       -0.3163644395
 O         -0.2495263063       -0.5506838133        0.5847729945
 C         -1.5118221248       -0.3586127808        0.3290143440
 O         -1.9863737850        0.2819026464       -0.5764953746
 H          0.2207800314        2.0750715816        0.2686355362
 H          1.4821829513        1.3453472459        1.2747576133
 H          1.8587469635        1.8905901766       -0.3681425682
 H          0.2923656421        0.1565978277       -1.2793547569
 H          1.6369757922       -1.8617407328       -0.6784588744
 H          2.3476789658       -0.9902135868        0.6838178301
 H          2.7000772025       -0.4798960293       -0.9753206206
 H         -2.1237302437       -0.8869928439        1.0771599725
  14
  -20.7854683800000       5.133654296275739E-002 !
 C          1.1005031856        1.4356417557        0.2608802027
 C          0.7450805116        0.0587704943       -0.2851515867
 C          1.9384812933       -0.8826781879       -0.3160768493
 O         -0.2495486893       -0.5509986236        0.5845661575
 C         -1.5118343798       -0.3586057450        0.3290064631
 O         -1.9863655158        0.2823152411       -0.5762481628
 H          1.4817433149        1.3455007711        1.2746209873
 H          1.8585215154        1.8905352304       -0.3683165460
 H          0.2203530059        2.0749211833        0.2681219548
 H          0.2925172634        0.1560280466       -1.2795597266
 H          2.7004596107       -0.4797005477       -0.9748844842
 H          1.6376358403       -1.8617375412       -0.6780671132
 H          2.3478281070       -0.9897608628        0.6841778845
 H         -2.1237475749       -0.8871842493        1.0770223474
  14
  -20.7854683600000       5.133545649286565E-002 !
 C          1.1000162643        1.4356576180        0.2606173196
 C          0.7451194354        0.0585871063       -0.2852019005
 C          1.9386875988       -0.8826205714       -0.3158163335
 O         -0.2495087822       -0.5514237598        0.5843646845
 C         -1.5117734444       -0.3585395895        0.3290272019
 O         -1.9862000921        0.2827556861       -0.5760203418
 H          1.4808331946        1.3457893237        1.2745117050
 H          1.8581291687        1.8906947841       -0.3683493629
 H          0.2196737654        2.0746389614        0.2674106597
 H          0.2927946832        0.1556595832       -1.2797214356
 H          1.6379755093       -1.8618862392       -0.6774245813
 H          2.3480769896       -0.9892372919        0.6844851105
 H          2.7005028901       -0.4796614621       -0.9748396756
 H         -2.1237804921       -0.8871172582        1.0770052790
  14
  -20.7854683000000       5.133219722153660E-002 !
 C          1.1003699177        1.4356255948        0.2608543079
 C          0.7450591071        0.0587562189       -0.2852430345
 C          1.9384393049       -0.8826734892       -0.3159724679
 O         -0.2494806462       -0.5510904654        0.5845083687
 C         -1.5117653619       -0.3585802094        0.3290193643
 O         -1.9862846292        0.2823957726       -0.5761977450
 H          0.2201797863        2.0747870870        0.2678388846
 H          1.4813476855        1.3457153042        1.2746927528
 H          1.8584508514        1.8905502001       -0.3682084262
 H          0.2925431565        0.1559378147       -1.2796883427
 H          2.3478320785       -0.9895633413        0.6843182381
 H          2.7002900566       -0.4796867625       -0.9749408035
 H          1.6375020677       -1.8617923632       -0.6778033117
 H         -2.1236776062       -0.8871639681        1.0770240302
  14
  -20.7854683000000       5.133219722153660E-002 !
 C          1.1010774807        1.4355948876        0.2613392217
 C          0.7450162396        0.0590482459       -0.2850232336
 C          1.9380894622       -0.8827739695       -0.3166231568
 O         -0.2495662297       -0.5504603818        0.5849397782
 C         -1.5118721965       -0.3584654977        0.3291326614
 O         -1.9864154002        0.2815335794       -0.5767718033
 H          1.8592283842        1.8903619019       -0.3677635008
 H          0.2211718177        2.0751569852        0.2687690249
 H          1.4822565213        1.3450823666        1.2750494059
 H          0.2922255442        0.1567936302       -1.2792782220
 H          2.6997300076       -0.4801088021       -0.9760445002
 H          1.6365856304       -1.8617649065       -0.6782933506
 H          2.3480582200       -0.9898818384        0.6833945659
 H         -2.1238325462       -0.8864545074        1.0776700745
  14
  -20.7854682100000       5.132730870233986E-002 !
 C          1.5965770686        1.3370658894        0.5476219880
 C          0.7011141443        0.3429658253       -0.1744876596
 C          1.4585025362       -0.8920326484       -0.6450103816
 O         -0.3243942716       -0.0653027142        0.7737232882
 C         -1.5111845745       -0.3620392732        0.3275400493
 O         -1.8901403206       -0.3381900167       -0.8175916291
 H          2.3638512117        1.6929214582       -0.1318590491
 H          1.0135527954        2.1833002291        0.8999316510
 H          2.0664881571        0.8562374964        1.4005811575
 H          0.1906091289        0.8146582958       -1.0231195063
 H          1.9060667955       -1.3990231458        0.2056507733
 H          2.2394144071       -0.5963635921       -1.3379064109
 H          0.7816391999       -1.5772712333       -1.1506178460
 H         -2.1613031668       -0.6454597583        1.1703786649
  14
  -20.7854681700000       5.132513617660066E-002 !
 C          1.1011029118        1.4357006255        0.2613140279
 C          0.7450464327        0.0591234249       -0.2849596029
 C          1.9379956940       -0.8828748089       -0.3166211715
 O         -0.2495525341       -0.5504418402        0.5849404446
 C         -1.5118433602       -0.3585688544        0.3290535906
 O         -1.9864233230        0.2815475199       -0.5767250035
 H          1.8591735672        1.8904683084       -0.3678924978
 H          0.2212091639        2.0752940858        0.2689085539
 H          1.4824359177        1.3450948004        1.2749456265
 H          0.2922313825        0.1569561543       -1.2791819406
 H          2.3478323187       -0.9902153797        0.6834155246
 H          2.6997666675       -0.4801416943       -0.9758359502
 H          1.6365069059       -1.8617932109       -0.6785217532
 H         -2.1237130660       -0.8867164380        1.0773730263
  14
  -20.7854680600000       5.131916220481098E-002 !
 C          1.5960400209        1.3374327151        0.5472752989
 C          0.7012512173        0.3426410183       -0.1746353036
 C          1.4592062141       -0.8921984292       -0.6445577196
 O         -0.3241656262       -0.0660351104        0.7734984036
 C         -1.5112146570       -0.3621211020        0.3275612517
 O         -1.8906099018       -0.3372946028       -0.8173816403
 H          2.3637099655        1.6931047393       -0.1318541921
 H          1.0124854430        2.1837172466        0.8986928961
 H          2.0654091018        0.8570928861        1.4008097712
 H          0.1907405686        0.8139016994       -1.0234533657
 H          2.2401136537       -0.5963373201       -1.3373785041
 H          0.7826411936       -1.5778192277       -1.1500648837
 H          1.9068756692       -1.3987227488        0.2063764349
 H         -2.1610930969       -0.6460753197        1.1703916320
  14
  -20.7854680400000       5.131807610295287E-002 !
 C          1.1021870571        1.4357534163        0.2619385437
 C          0.7449698613        0.0596215399       -0.2847365124
 C          1.9373414813       -0.8830700319       -0.3173355226
 O         -0.2495957704       -0.5495696531        0.5854606631
 C         -1.5119279685       -0.3586258891        0.3290761387
 O         -1.9866594084        0.2804409221       -0.5773743502
 H          1.8604253004        1.8902140423       -0.3672855432
 H          0.2227738220        2.0759912386        0.2700079415
 H          1.4837211148        1.3445468884        1.2754417867
 H          0.2917471451        0.1580276774       -1.2787164720
 H          1.6350663926       -1.8617054860       -0.6793494473
 H          2.3476675019       -0.9909251064        0.6824491435
 H          2.6989710459       -0.4805949015       -0.9768795150
 H         -2.1236981830       -0.8864455661        1.0777358241
  14
  -20.7854680400000       5.131807610295287E-002 !
 C          1.5971066019        1.3366774306        0.5479852417
 C          0.7010997314        0.3433665235       -0.1744293474
 C          1.4577268859       -0.8919185390       -0.6453360815
 O         -0.3245432905       -0.0645319655        0.7737828821
 C         -1.5111350925       -0.3619730447        0.3275203035
 O         -1.8897630267       -0.3391040244       -0.8177287262
 H          1.0143740761        2.1830369920        0.9005677343
 H          2.0666619098        0.8551825165        1.4007818063
 H          2.3645884957        1.6923976507       -0.1313258680
 H          0.1908605193        0.8156629849       -1.0228483147
 H          1.9053909777       -1.3993255999        0.2050757161
 H          2.2385365322       -0.5964655619       -1.3384587820
 H          0.7802325169       -1.5766297967       -1.1508149146
 H         -2.1614351165       -0.6448802056        1.1703852384
  14
  -20.7854680200000       5.131699002388774E-002 !
 C          1.5959199505        1.3374414002        0.5473018434
 C          0.7012699664        0.3425224475       -0.1746325881
 C          1.4593530730       -0.8922260014       -0.6446220489
 O         -0.3241893027       -0.0660121891        0.7735216187
 C         -1.5112401141       -0.3620445496        0.3275737792
 O         -1.8906021993       -0.3372829556       -0.8173857218
 H          2.0650394294        0.8572843588        1.4010733528
 H          2.3637931450        1.6928323417       -0.1317354181
 H          1.0124170562        2.1839029743        0.8983745229
 H          0.1907477131        0.8136587488       -1.0235011269
 H          1.9071402244       -1.3985761104        0.2063356296
 H          2.2401826905       -0.5964241609       -1.3375851924
 H          0.7828057492       -1.5780098676       -1.1499259375
 H         -2.1612292331       -0.6456292890        1.1704488543
  14
  -20.7854680000000       5.131590396800095E-002 !
 C          1.5957020168        1.3375176990        0.5471667487
 C          0.7012592423        0.3424197717       -0.1747321695
 C          1.4596877740       -0.8922552995       -0.6444120910
 O         -0.3240927639       -0.0663179137        0.7734339460
 C         -1.5112583299       -0.3620254132        0.3275939579
 O         -1.8907926480       -0.3369269363       -0.8172976986
 H          1.0119916230        2.1838893832        0.8980978499
 H          2.0649022381        0.8575313078        1.4010035365
 H          2.3634853112        1.6929748083       -0.1319273148
 H          0.1906333883        0.8134312306       -1.0236220748
 H          2.2405011961       -0.5963674193       -1.3373615081
 H          0.7833174060       -1.5782245634       -1.1497104966
 H          1.9075643575       -1.3984741826        0.2066024400
 H         -2.1610546397       -0.6460845136        1.1704507830
  14
  -20.7854679500000       5.131318892855262E-002 !
 C          1.5960799589        1.3374069564        0.5472057255
 C          0.7012392204        0.3425446022       -0.1745549154
 C          1.4594387690       -0.8920881765       -0.6445900092
 O         -0.3242367371       -0.0661655308        0.7735289074
 C         -1.5113449433       -0.3620377549        0.3275821933
 O         -1.8906834275       -0.3372424619       -0.8173901032
 H          2.0649400987        0.8571740502        1.4010673690
 H          2.3641700636        1.6926654550       -0.1316652965
 H          1.0126316599        2.1839651745        0.8981258847
 H          0.1907913667        0.8137735656       -1.0234206069
 H          2.2399311625       -0.5961824383       -1.3378579002
 H          0.7828071817       -1.5779268751       -1.1496652258
 H          1.9076536009       -1.3983934010        0.2061685456
 H         -2.1612983609       -0.6458221257        1.1704235099
  14
  -20.7854679000000       5.131047403275254E-002 !
 C          1.5950694912        1.3379849767        0.5469643956
 C          0.7013376759        0.3418933661       -0.1746269929
 C          1.4602212871       -0.8924410192       -0.6444413606
 O         -0.3240355106       -0.0669711805        0.7735054032
 C         -1.5113233369       -0.3618563989        0.3276324724
 O         -1.8907536378       -0.3364017601       -0.8172524813
 H          2.3625933346        1.6936781451       -0.1322510909
 H          1.0112647400        2.1843640175        0.8977699024
 H          2.0646718216        0.8585013467        1.4008469031
 H          0.1905995665        0.8121855177       -1.0238075787
 H          0.7844886521       -1.5786845726       -1.1500765240
 H          1.9079521672       -1.3984457045        0.2065578069
 H          2.2411547327       -0.5964225527       -1.3370185996
 H         -2.1618923085       -0.6435632834        1.1707081839
  14
  -20.7854678800000       5.130938811457515E-002 !
 C          1.5946631275        1.3381953008        0.5465603936
 C          0.7014425799        0.3416215817       -0.1748943048
 C          1.4611592618       -0.8925251653       -0.6438017450
 O         -0.3237760465       -0.0676005228        0.7732324620
 C         -1.5113640437       -0.3621295318        0.3276253994
 O         -1.8915855130       -0.3352927758       -0.8170061548
 H          1.0100615135        2.1843236590        0.8966345687
 H          2.0639858949        0.8593410281        1.4009516798
 H          2.3624140440        1.6938725627       -0.1324687220
 H          0.1906006908        0.8114717497       -1.0242652037
 H          0.7855740642       -1.5796077338       -1.1486457903
 H          1.9093360021       -1.3975660516        0.2077285667
 H          2.2418286754       -0.5963673781       -1.3368231616
 H         -2.1609818088       -0.6464787066        1.1705015292
  14
  -20.7854677100000       5.130015873868870E-002 !
 C          1.5960920811        1.3372049825        0.5479286290
 C          0.7011268790        0.3429840532       -0.1745228549
 C          1.4584022053       -0.8919507217       -0.6452771947
 O         -0.3241907814       -0.0656083188        0.7736886652
 C         -1.5114205669       -0.3606564998        0.3276866973
 O         -1.8896989125       -0.3387852459       -0.8176453585
 H          2.0626343968        0.8571490676        1.4031975057
 H          2.3659225154        1.6903963608       -0.1300113038
 H          1.0134433636        2.1851438043        0.8968203090
 H          0.1906365184        0.8147782859       -1.0230579836
 H          0.7810265319       -1.5775401028       -1.1498245678
 H          1.9071883143       -1.3984016729        0.2050949030
 H          2.2383719233       -0.5962219015       -1.3392081901
 H         -2.1595066484       -0.6513330198        1.1696285346
  14
  -20.7837647200000       8.462110523737113E-003 !
 C          0.9753570234        1.4974256628        0.0833624211
 C          0.9626882888        0.0673617624       -0.4400153537
 C          1.3892514472       -0.9437253518        0.6159431151
 O         -0.3417450325       -0.2747863682       -0.9946746470
 C         -1.4140783489       -0.2949120981       -0.2525775423
 O         -1.5211551874       -0.0568289254        0.9236619422
 H          1.9892860513        1.7669064125        0.3609177844
 H          0.6245024729        2.1820582072       -0.6849583814
 H          0.3337161398        1.5875812237        0.9564589361
 H          1.6080008897       -0.0151093153       -1.3203314155
 H          0.7498016913       -0.8700797210        1.4921975649
 H          2.4145046858       -0.7424029851        0.9091988570
 H          1.3267242536       -1.9531701833        0.2169411835
 H         -2.2741798783       -0.5783751519       -0.8832029840
  14
  -20.7837646900000       8.461841891159578E-003 !
 C          0.9752844724        1.4974343660        0.0834971791
 C          0.9627289886        0.0673902295       -0.4400167238
 C          1.3890992978       -0.9438625512        0.6158532724
 O         -0.3417274602       -0.2745368042       -0.9947231156
 C         -1.4140091673       -0.2948778923       -0.2525874393
 O         -1.5210448904       -0.0570192832        0.9236686905
 H          0.3334890210        1.5876562117        0.9564795245
 H          1.9891947386        1.7667255377        0.3612454894
 H          0.6246239098        2.1822217328       -0.6847706428
 H          1.6080752864       -0.0151595566       -1.3203052929
 H          1.3264770390       -1.9533435466        0.2168384294
 H          0.7496444755       -0.8700160776        1.4920631667
 H          2.4143485613       -0.7427474945        0.9091680922
 H         -2.2741582429       -0.5780837652       -0.8832359345
  14
  -20.7837645300000       8.460409328024181E-003 !
 C          0.9753485791        1.4974364344        0.0836329351
 C          0.9627033393        0.0674291885       -0.4400083168
 C          1.3890608688       -0.9439401734        0.6157584984
 O         -0.3417710202       -0.2743210023       -0.9947925142
 C         -1.4140481483       -0.2947392157       -0.2526369052
 O         -1.5209775746       -0.0573032383        0.9237217001
 H          1.9893358214        1.7667364620        0.3610490363
 H          0.6244297894        2.1823665798       -0.6844117582
 H          0.3338514782        1.5875181519        0.9568467452
 H          1.6080505486       -0.0150814151       -1.3202991340
 H          2.4142162735       -0.7425249433        0.9092501547
 H          1.3266967036       -1.9533935036        0.2166939422
 H          0.7493848316       -0.8704186552        1.4918457400
 H         -2.2741835795       -0.5780842310       -0.8832308312
  14
  -20.7837643400000       8.458708474346011E-003 !
 C          0.9752109205        1.4974270203        0.0833635464
 C          0.9627118411        0.0673370705       -0.4400352938
 C          1.3891500510       -0.9437628788        0.6159492708
 O         -0.3417261774       -0.2747446295       -0.9947089625
 C         -1.4139998105       -0.2949591726       -0.2525415976
 O         -1.5210146628       -0.0567840617        0.9236667601
 H          1.9891037482        1.7668537525        0.3610121012
 H          0.6244817098        2.1821275750       -0.6849674414
 H          0.3334638567        1.5876946396        0.9563775321
 H          1.6080828638       -0.0152612317       -1.3203035680
 H          1.3265800277       -1.9532648142        0.2170383054
 H          0.7496099390       -0.8700257218        1.4921195261
 H          2.4143827317       -0.7424392481        0.9092295644
 H         -2.2741457576       -0.5783649597       -0.8830937226
  14
  -20.7837642700000       8.458081930214334E-003 !
 C          0.9751693483        1.4973555202        0.0833504629
 C          0.9626984514        0.0673119549       -0.4401265265
 C          1.3890642583       -0.9436713660        0.6160135442
 O         -0.3417797731       -0.2747225689       -0.9947674552
 C         -1.4139806517       -0.2950014404       -0.2524880603
 O         -1.5208365969       -0.0567587320        0.9237088008
 H          0.6243951653        2.1818800244       -0.6851396915
 H          0.3333575549        1.5878141695        0.9563578249
 H          1.9891085703        1.7667756731        0.3609333028
 H          1.6081108682       -0.0152728832       -1.3203840051
 H          1.3262599413       -1.9531909749        0.2172186250
 H          0.7496155586       -0.8696471916        1.4922247706
 H          2.4143916743       -0.7427326561        0.9092080922
 H         -2.2742070258       -0.5784939378       -0.8829062728
  14
  -20.7837642100000       8.457544929361179E-003 !
 C          0.9758217405        1.4975071542        0.0836422055
 C          0.9624682028        0.0674892330       -0.4399631356
 C          1.3893409612       -0.9438689680        0.6157181612
 O         -0.3420073092       -0.2743982626       -0.9947807089
 C         -1.4143024857       -0.2946960779       -0.2526615927
 O         -1.5211163773       -0.0574970964        0.9237417872
 H          0.3353567706        1.5874817301        0.9576549084
 H          1.9901445463        1.7666920823        0.3598992063
 H          0.6242197922        2.1825985857       -0.6839800514
 H          1.6074828273       -0.0148174393       -1.3204815482
 H          0.7501426905       -0.8700407452        1.4923018687
 H          2.4146969876       -0.7423091696        0.9084767526
 H          1.3271256213       -1.9534992966        0.2168253141
 H         -2.2745766337       -0.5776044703       -0.8833328066
  14
  -20.7837641000000       8.456560516292230E-003 !
 C          0.9755852931        1.4973280941        0.0836955317
 C          0.9625508777        0.0674426323       -0.4401779591
 C          1.3895433551       -0.9435907067        0.6156971625
 O         -0.3420429831       -0.2743167585       -0.9947926556
 C         -1.4143908541       -0.2941512481       -0.2527160584
 O         -1.5211206499       -0.0575360443        0.9238130293
 H          0.3334185162        1.5871621460        0.9564896701
 H          1.9894968362        1.7659622240        0.3619290497
 H          0.6255842195        2.1825832954       -0.6844742313
 H          1.6075330431       -0.0150068275       -1.3207500388
 H          2.4149566080       -0.7420161165        0.9080577613
 H          1.3272178794       -1.9531363015        0.2170959021
 H          0.7508251413       -0.8697146618        1.4924923409
 H         -2.2733319274       -0.5851270398       -0.8815943626
  14
  -20.7837640300000       8.455934131293528E-003 !
 C          0.9750756968        1.4974624836        0.0832385234
 C          0.9627120688        0.0672998097       -0.4400013867
 C          1.3892601525       -0.9437559963        0.6159843965
 O         -0.3416936943       -0.2749346556       -0.9946459529
 C         -1.4139822429       -0.2950406925       -0.2525005247
 O         -1.5210384087       -0.0565235366        0.9236212531
 H          0.6243996491        2.1821211363       -0.6851590592
 H          0.3332648923        1.5878011531        0.9561952030
 H          1.9889225320        1.7669538069        0.3609634773
 H          1.6080724529       -0.0153426315       -1.3202691971
 H          2.4144876470       -0.7423736389        0.9092431940
 H          1.3267220539       -1.9532980717        0.2171524123
 H          0.7497218577       -0.8699769626        1.4921490763
 H         -2.2740833455       -0.5787730482       -0.8829628770
  14
  -20.7837639400000       8.455128847308722E-003 !
 C          0.9753218280        1.4974146808        0.0833092817
 C          0.9626230171        0.0673380437       -0.4401156807
 C          1.3890456442       -0.9436846846        0.6160278739
 O         -0.3418442665       -0.2748068473       -0.9947067204
 C         -1.4140061337       -0.2952340838       -0.2524035087
 O         -1.5208296221       -0.0566806097        0.9236232775
 H          0.6228310872        2.1822137850       -0.6842945154
 H          0.3353128290        1.5874094629        0.9577405551
 H          1.9898545168        1.7669561390        0.3588092072
 H          1.6078601557       -0.0151385967       -1.3204964297
 H          0.7497345171       -0.8700868010        1.4924328502
 H          2.4144793867       -0.7427942750        0.9089701589
 H          1.3261349876       -1.9531359367        0.2172019638
 H         -2.2746547855       -0.5762787662       -0.8832744701
