  15
    -0.395144 !GC
 C          0.0000000000        0.0000000000        0.0000000000
 C          1.4959232507        0.0000000000        0.0000000000
 C          2.2066084043        1.1951470172        0.0000000000
 C          3.5885805992        1.2059218942        0.0612277579
 C          4.2629873366        0.0007315388        0.1221488988
 C          3.5867597724       -1.2049421553        0.1227348268
 C          2.2047468031       -1.1948559487        0.0632557743
 Br         6.1885707772        0.0005356967        0.1957955072
 H         -0.3498271574       -0.6010441322        0.8415645340
 H         -0.4021527417        1.0004421706        0.1117071302
 H         -0.3869650285       -0.4592511249       -0.9055195609
 H          1.6761301107        2.1336500368       -0.0502453976
 H          4.1344526651        2.1364838682        0.0539930471
 H          4.1304030659       -2.1357418385        0.1643413160
 H          1.6724729503       -2.1337559945        0.0615044327
  15
    -0.390803 !GC
 C          0.0000000000        0.0000000000        0.0000000000
 C          1.4962188569        0.0000000000        0.0000000000
 C          2.2149899359        1.1891971210        0.0000000000
 C          3.5983043330        1.1893757423        0.0494817120
 C          4.2639396442       -0.0204888508        0.1021922818
 C          3.5783273409       -1.2217119991        0.1051148685
 C          2.1969478648       -1.2010394003        0.0530550834
 Br         6.1897929962       -0.0360756329        0.1657742013
 H         -0.3795838793        0.7816744272        0.6542648619
 H         -0.3689425076        0.2035940522       -1.0044012698
 H         -0.3914798352       -0.9594408758        0.3241587168
 H          1.6924370978        2.1325281611       -0.0420694703
 H          4.1500907114        2.1162968500        0.0439939311
 H          4.1159229454       -2.1562681306        0.1418102408
 H          1.6562150258       -2.1350858694        0.0507534690
  15
    -0.313779 !GC
 C          0.0000000000        0.0000000000        0.0000000000
 C          1.4958607987        0.0000000000        0.0000000000
 C          2.1984975079        1.2007895119        0.0000000000
 C          3.5793941069        1.2214248297        0.0629074122
 C          4.2624452044        0.0205054338        0.1254708328
 C          3.5947129940       -1.1891807266        0.1273293673
 C          2.2121119946       -1.1890558071        0.0656598111
 Br         6.1878257836        0.0338475033        0.2030830643
 H         -0.3835258885       -0.6636372266        0.7703401433
 H         -0.3860092623        1.0010332342        0.1699191030
 H         -0.3695937772       -0.3502672341       -0.9626486238
 H          1.6601285050        2.1346555647       -0.0497451210
 H          4.1184479551        2.1555456959        0.0579206624
 H          4.1446906336       -2.1161002633        0.1728915975
 H          1.6876741640       -2.1323484409        0.0665586686
  15
    -0.252847 !GC
 C          0.0000000000        0.0000000000        0.0000000000
 C          1.4959349841        0.0000000000        0.0000000000
 C          2.2013194781        1.1989774801        0.0000000000
 C          3.5826703342        1.2163357802        0.0633453446
 C          4.2626922840        0.0139741768        0.1267832431
 C          3.5920143020       -1.1943450100        0.1282515423
 C          2.2095912536       -1.1909254701        0.0661373864
 Br         6.1880105231        0.0225024023        0.2056453459
 H         -0.3662340884       -0.2772005967       -0.9875847702
 H         -0.3834492480       -0.7263020783        0.7118692301
 H         -0.3897475016        0.9832416256        0.2463239981
 H          1.6656446297        2.1343560288       -0.0521395249
 H          4.1241284885        2.1492989500        0.0561526687
 H          4.1399380037       -2.1225041374        0.1731167807
 H          1.6825497701       -2.1328002789        0.0647719634
  15
    -0.231793 !GC
 C          0.0000000000        0.0000000000        0.0000000000
 C          1.4960505519        0.0000000000        0.0000000000
 C          2.2041038607        1.1974719504        0.0000000000
 C          3.5872055938        1.2109484193       -0.0192127338
 C          4.2655642264        0.0063731248       -0.0382140912
 C          3.5922843859       -1.2007583033       -0.0390408758
 C          2.2087368686       -1.1936248817       -0.0200144120
 Br         6.1923827853        0.0106440660       -0.0621017878
 H         -0.3707793175        0.2395880721       -0.9950380144
 H         -0.3814300939       -0.9811957197        0.2725435754
 H         -0.3872773636        0.7349728475        0.7000048495
 H          1.6696955412        2.1351461928        0.0132291086
 H          4.1305130944        2.1431318271       -0.0198028410
 H          4.1390411027       -2.1305235256       -0.0545134720
 H          1.6792462808       -2.1340841087       -0.0235434742
  15
    -0.178218 !GC
 C          0.0000000000        0.0000000000        0.0000000000
 C          1.4956854284        0.0000000000        0.0000000000
 C          2.1892436181        1.2075515252        0.0000000000
 C          3.5702130839        1.2390875042        0.0350789293
 C          4.2642106515        0.0425952797        0.0666303014
 C          3.6068645068       -1.1719009148        0.0654085816
 C          2.2222500965       -1.1829211672        0.0350717756
 Br         6.1905797316        0.0720691513        0.1078149396
 H         -0.3528587664        0.4884571364       -0.9092508317
 H         -0.3996089402       -1.0077993861        0.0188390116
 H         -0.3859862097        0.5674287969        0.8422994810
 H          1.6408488560        2.1365810586       -0.0274768394
 H          4.1022148869        2.1774998652        0.0306107616
 H          4.1647252512       -2.0948929992        0.0879228423
 H          1.7074106478       -2.1314907122        0.0353549879
  15
    -0.105531 !GC
 C          0.0000000000        0.0000000000        0.0000000000
 C          1.4959809084        0.0000000000        0.0000000000
 C          2.1977265987        1.2017172092        0.0000000000
 C          3.5799730432        1.2228154357        0.0233197357
 C          4.2650775102        0.0216039365        0.0466621414
 C          3.5983243444       -1.1886109365        0.0477826450
 C          2.2143381281       -1.1890968557        0.0248655628
 Br         6.1917835164        0.0357670778        0.0777648618
 H         -0.3825412469       -0.8566026638       -0.5486671433
 H         -0.3663417779       -0.0718719970        1.0235398233
 H         -0.3905028873        0.9124709867       -0.4399729483
 H          1.6573426680        2.1356257367       -0.0192999087
 H          4.1179975070        2.1576379386        0.0206104815
 H          4.1501059269       -2.1154014011        0.0653810216
 H          1.6909465693       -2.1329682207        0.0246216948
  15
    -0.082245 !GC
 C          0.0000000000        0.0000000000        0.0000000000
 C          1.4960434866        0.0000000000        0.0000000000
 C          2.2058451181        1.1960805581        0.0000000000
 C          3.5891218405        1.2073385996        0.0216105586
 C          4.2655337867        0.0018691361        0.0433246390
 C          3.5902465071       -1.2043194402        0.0431613024
 C          2.2069048121       -1.1948696902        0.0224215606
 Br         6.1923525766        0.0025510720        0.0704594470
 H         -0.3488218393       -0.9182842530       -0.4766061636
 H         -0.3827101056       -0.0133923635        1.0175911199
 H         -0.4076179326        0.8450857839       -0.5413010984
 H          1.6733371071        2.1346501730       -0.0198218356
 H          4.1339069338        2.1386514981        0.0166524818
 H          4.1355904044       -2.1349447847        0.0567991143
 H          1.6755982710       -2.1343123079        0.0195728448
  15
    -0.061806 !GC
 C          0.0000000000        0.0000000000        0.0000000000
 C          1.4956924936        0.0000000000        0.0000000000
 C          2.1874803624        1.2089192473        0.0000000000
 C          3.5686463747        1.2424364220       -0.0056843757
 C          4.2648673037        0.0466999290       -0.0148815100
 C          3.6095028726       -1.1686887670       -0.0167670095
 C          2.2244400197       -1.1818684312       -0.0073088452
 Br         6.1915584847        0.0795429122       -0.0246976269
 H         -0.3747473942        0.9890699208        0.2530866151
 H         -0.3983445555       -0.3007650589       -0.9627765451
 H         -0.3653276505       -0.6905976288        0.7595438613
 H          1.6369679933        2.1371551004        0.0056231145
 H          4.0991325385        2.1817118113       -0.0058120096
 H          4.1689983921       -2.0909400710       -0.0233529713
 H          1.7115201404       -2.1314714872       -0.0078186009
  15
    -0.048781 !GC
 C          0.0000000000        0.0000000000        0.0000000000
 C          1.4959303160        0.0000000000        0.0000000000
 C          2.2048688655        1.1965396779        0.0000000000
 C          3.5878426947        1.2088343629        0.0204268515
 C          4.2653428897        0.0038547735        0.0406546259
 C          3.5911286852       -1.2027674575        0.0405721765
 C          2.2077988649       -1.1943366430        0.0208302352
 Br         6.1921607527        0.0065397033        0.0632903042
 H         -0.3717714260       -0.9508943373       -0.3772994418
 H         -0.4008905106        0.1733036629        0.9923292064
 H         -0.3663149630        0.7786847062       -0.6685433997
 H          1.6715667487        2.1346981959       -0.0172282881
 H          4.1320514974        2.1403884161        0.0175519051
 H          4.1369253528       -2.1331506418        0.0530820871
 H          1.6773686065       -2.1342721974        0.0184180454
  15
    -0.046347 !GC
 C          0.0000000000        0.0000000000        0.0000000000
 C          1.4959621097        0.0000000000        0.0000000000
 C          2.2047725006        1.1965126600        0.0000000000
 C          3.5865744287        1.2095533273        0.0619829322
 C          4.2628843230        0.0053269750        0.1235087075
 C          3.5885257803       -1.2012954967        0.1243986087
 C          2.2063347861       -1.1934992498        0.0643657145
 Br         6.1884345766        0.0080206939        0.2004141737
 H         -0.3442892838        1.0274913643        0.1397475577
 H         -0.3865488728       -0.3290582019       -0.9605728862
 H         -0.4080559027       -0.6045757400        0.8006753058
 H          1.6724615716        2.1338834430       -0.0504405422
 H          4.1306903836        2.1409999272        0.0548681394
 H          4.1337465340       -2.1310909732        0.1678325770
 H          1.6757937007       -2.1333492679        0.0644325340
  15
    -0.040016 !GC
 C          0.0000000000        0.0000000000        0.0000000000
 C          1.4959420494        0.0000000000        0.0000000000
 C          2.1995726161        1.2003624293        0.0000000000
 C          3.5819810616        1.2192072215        0.0225613256
 C          4.2651698451        0.0170276663        0.0452993570
 C          3.5965344266       -1.1922454214        0.0461103736
 C          2.2127270604       -1.1904449544        0.0237425206
 Br         6.1918482289        0.0283554191        0.0731487030
 H         -0.3879350159        0.8821487056       -0.5005326377
 H         -0.3821702799       -0.8874905666       -0.4979838996
 H         -0.3691416506       -0.0055293052        1.0246513937
 H          1.6610193052        2.1354153294       -0.0191083711
 H          4.1217663348        2.1531574172        0.0197266719
 H          4.1466983908       -2.1200275761        0.0618810187
 H          1.6875462386       -2.1333514841        0.0216853103
  15
    -0.014184 !GC
 C          0.0000000000        0.0000000000        0.0000000000
 C          1.4958490653        0.0000000000        0.0000000000
 C          2.2037961653        1.1969711745        0.0000000000
 C          3.5853290488        1.2110269009        0.0607903279
 C          4.2627693665        0.0072656114        0.1208367556
 C          3.5894823310       -1.1997888818        0.1218129525
 C          2.2072763705       -1.1929955041        0.0627786862
 Br         6.1884335532        0.0118860211        0.1932336003
 H         -0.3673096167        1.0248645065        0.0350272297
 H         -0.4046730067       -0.4959417234       -0.8740780029
 H         -0.3667681593       -0.4981908465        0.8969649572
 H          1.6706190264        2.1339741350       -0.0478516612
 H          4.1288053224        2.1427560469        0.0557621429
 H          4.1351865331       -2.1293603020        0.1641164847
 H          1.6776019884       -2.1333309234        0.0632897739
  15
    -0.001772 !GC
 C          0.0000000000        0.0000000000        0.0000000000
 C          1.4956112429        0.0000000000        0.0000000000
 C          2.1863998649        1.2093364915        0.0000000000
 C          3.5668724554        1.2441492736        0.0346501303
 C          4.2638678101        0.0491465078        0.0653202826
 C          3.6094882083       -1.1666896459        0.0644893621
 C          2.2247406012       -1.1810174763        0.0346012894
 Br         6.1902220076        0.0834535271        0.1052579518
 H         -0.3702975373       -1.0189719925        0.0950984319
 H         -0.4021343479        0.6057736608        0.8035350918
 H         -0.3657810621        0.3840310633       -0.9517315616
 H          1.6353841045        2.1367862878       -0.0250726148
 H          4.0965049818        2.1836622740        0.0323882163
 H          4.1694053912       -2.0884283909        0.0877021506
 H          1.7125758258       -2.1309958018        0.0371389211
