  15
  -22.6363374200000       0.167210141903724      !
 C         -4.1733443357       -0.0002325856        0.0113760867
 C         -2.6775103335        0.0001534725       -0.0085083707
 C         -1.9671463023        1.1956811564       -0.0063458432
 C         -0.5837979919        1.2059677317       -0.0026381163
 C          0.0921178561        0.0000966982       -0.0007541231
 C         -0.5838396077       -1.2057958765       -0.0026583820
 C         -1.9671276188       -1.1954549495       -0.0063367817
 Br         2.0191630371       -0.0000461539        0.0016098465
 H         -4.5666907887        0.8899195373       -0.4715362647
 H         -4.5661778839       -0.8819636615       -0.4872302062
 H         -4.5257535223       -0.0097130586        1.0423305853
 H         -2.4989582340        2.1347987596       -0.0084294098
 H         -0.0388387993        2.1369287121       -0.0026457861
 H         -0.0388719995       -2.1367530667       -0.0025686703
 H         -2.4990789062       -2.1345113115       -0.0084838175
  15
  -22.6363367900000       0.167098706279995      !
 C         -4.1732989882        0.0009722684       -0.0076621105
 C         -2.6774754451       -0.0009564129        0.0108892352
 C         -1.9672175654        1.1948726778        0.0082019290
 C         -0.5840709452        1.2054908491        0.0030638212
 C          0.0921354808       -0.0003669082        0.0007000506
 C         -0.5835529179       -1.2062307641        0.0033694242
 C         -1.9670295512       -1.1962206929        0.0078642034
 Br         2.0191397052        0.0002938036       -0.0033990872
 H         -4.5264671857        0.0512994301       -1.0371427640
 H         -4.5671384273       -0.9064060111        0.4412567161
 H         -4.5648305983        0.8634509518        0.5247384216
 H         -2.4995418430        2.1336804122        0.0110834227
 H         -0.0392212984        2.1364729470        0.0024035334
 H         -0.0384820864       -2.1371291679        0.0022665809
 H         -2.4984882966       -2.1355963589        0.0099516453
  15
  -22.6363362600000       0.167005016370740      !
 C         -4.1733470442        0.0018734904        0.0108217389
 C         -2.6774867357       -0.0017301303       -0.0080132126
 C         -1.9673307916        1.1943679827       -0.0060467504
 C         -0.5843105726        1.2052832967       -0.0024926621
 C          0.0921309759       -0.0005611905       -0.0009147121
 C         -0.5832862586       -1.2064283155       -0.0027475720
 C         -1.9669196397       -1.1966860185       -0.0058460364
 Br         2.0191497920        0.0004351305        0.0015614643
 H         -4.5265357113        0.1001963535        1.0366967609
 H         -4.5638213555        0.8401001474       -0.5598793535
 H         -4.5683910151       -0.9242703209       -0.3967981794
 H         -2.5001428373        2.1328929664       -0.0085504937
 H         -0.0395177180        2.1363590949       -0.0026847237
 H         -0.0381358278       -2.1372767115       -0.0034646244
 H         -2.4979466434       -2.1362510154       -0.0075108520
  15
  -22.6363347900000       0.166745434264110      !
 C         -4.1733912500        0.0029939481       -0.0066541449
 C         -2.6774909239       -0.0026776277        0.0098027256
 C         -1.9674600693        1.1938010680        0.0072948974
 C         -0.5846400338        1.2050763202        0.0027946489
 C          0.0921239574       -0.0007801812        0.0005259122
 C         -0.5829860294       -1.2067231051        0.0027769123
 C         -1.9667986330       -1.1973431515        0.0072413114
 Br         2.0191655738        0.0006135124       -0.0030750773
 H         -4.5689308264       -0.9436764620        0.3498519416
 H         -4.5613132237        0.8085854610        0.6112785802
 H         -4.5285924559        0.1602603814       -1.0244706312
 H         -2.5007840354        2.1320346055        0.0095546443
 H         -0.0399938388        2.1362134597        0.0020396930
 H         -0.0377288028       -2.1375052492        0.0019610714
 H         -2.4972918216       -2.1371892394        0.0101663446
  15
  -22.6363323700000       0.166318973581267      !
 C         -4.1734114826        0.0041779121       -0.0055189408
 C         -2.6774662200       -0.0036812352        0.0086807679
 C         -1.9675538333        1.1931251705        0.0063869159
 C         -0.5849166043        1.2047510774        0.0023521499
 C          0.0921241551       -0.0011001446        0.0004136108
 C         -0.5826244294       -1.2070517052        0.0023019454
 C         -1.9666113438       -1.1980379622        0.0063407813
 Br         2.0191360318        0.0008480389       -0.0027288721
 H         -4.5586570238        0.7704084432        0.6625059552
 H         -4.5304777953        0.2264312714       -1.0103656438
 H         -4.5697573262       -0.9620388864        0.2927764634
 H         -2.5014441710        2.1310773679        0.0085620681
 H         -0.0403383297        2.1360053747        0.0020087314
 H         -0.0372249086       -2.1377517679        0.0021955617
 H         -2.4965768500       -2.1382123577        0.0089168291
  15
  -22.6363284000000       0.165621727600164      !
 C         -4.1734532247       -0.0062323268        0.0059207647
 C         -2.6774398459        0.0053483962       -0.0030005653
 C         -1.9664694849        1.1991275781       -0.0019748606
 C         -0.5821619901        1.2075855606       -0.0007325279
 C          0.0921320998        0.0016378781        0.0000209427
 C         -0.5854148249       -1.2042303048       -0.0004552743
 C         -1.9677424156       -1.1920228918       -0.0021375954
 Br         2.0191589732       -0.0012000127       -0.0000678136
 H         -4.5523480414       -0.6701519236       -0.7677687881
 H         -4.5358596122       -0.3724275459        0.9652211271
 H         -4.5711674775        0.9910967965       -0.1565489574
 H         -2.4956266998        2.1397578078       -0.0029802059
 H         -0.0365882182        2.1381911269       -0.0010465458
 H         -0.0410464415       -2.1355416024       -0.0004176636
 H         -2.5025869818       -2.1294207912       -0.0029716144
