  16
  -29.8025487900000       0.250003306870931      !
 C         -2.5794097868       -0.2642612898        0.0000007855
 C         -1.8720244434       -1.4763075569       -0.0000042655
 C         -0.5070302235       -1.4533887198       -0.0000067755
 C          0.2023749740       -0.2345205294       -0.0000043382
 C         -0.5033716938        1.0027433253       -0.0000009210
 C         -1.9170545916        0.9307788985        0.0000060819
 N          0.0921676869        2.1954822111        0.0000017862
 N          1.5899003215       -0.3015552595       -0.0000005324
 O          2.1431657114       -1.4064249980        0.0000125604
 O          2.2645395145        0.7395403192       -0.0000082875
 H         -3.6578018984       -0.2803359527        0.0000170611
 H         -2.4016311152       -2.4140634783       -0.0000011861
 H          0.0726719280       -2.3633265356       -0.0000073870
 H         -2.4671734484        1.8583426674        0.0000088261
 H          1.1008968582        2.2511214974       -0.0000009506
 H         -0.4704901565        3.0293419249        0.0000107895
  16
  -29.8025487800000       0.250000661362612      !
 C         -2.5793856384       -0.2642915838       -0.0002752836
 C         -1.8719479482       -1.4763097553        0.0000766844
 C         -0.5069636933       -1.4533492870        0.0001893448
 C          0.2023824239       -0.2344800190        0.0002388462
 C         -0.5033937607        1.0027785152        0.0000811856
 C         -1.9170745222        0.9307806057       -0.0001238045
 N          0.0921059970        2.1955400911        0.0001712424
 N          1.5898885794       -0.3015702548        0.0003333574
 O          2.1430642250       -1.4064628379       -0.0002579731
 O          2.2646006367        0.7394722783       -0.0003164431
 H         -3.6577736833       -0.2804102346       -0.0004579507
 H         -2.4015109808       -2.4140722657       -0.0000445083
 H          0.0727902588       -2.3632525016       -0.0011164419
 H         -2.4672094067        1.8583191760        0.0012720467
 H         -0.4705735699        3.0293861419       -0.0000461391
 H          1.1008303129        2.2511894503        0.0002708202
  16
  -29.8025487700000       0.249998015883228      !
 C         -2.5793596989       -0.2642845668        0.0002299173
 C         -1.8719403471       -1.4762900884       -0.0004084986
 C         -0.5069781053       -1.4533254139        0.0000686950
 C          0.2023648322       -0.2344677760        0.0000964515
 C         -0.5033711453        1.0027886703       -0.0001366328
 C         -1.9170477385        0.9307794576        0.0002729102
 N          0.0921620937        2.1955446495       -0.0001684679
 N          1.5898592067       -0.3015819790        0.0003225291
 O          2.2645913843        0.7394639109       -0.0000195930
 O          2.1429992920       -1.4065064166       -0.0000751244
 H         -3.6577346810       -0.2804106722       -0.0002450320
 H         -2.4014966570       -2.4140435773       -0.0001704149
 H          0.0727617842       -2.3632158921       -0.0001095208
 H         -2.4671809637        1.8583195226       -0.0016058349
 H          1.1009011969        2.2511838293       -0.0003680222
 H         -0.4704985039        3.0293950338        0.0003976145
  16
  -29.8025487700000       0.249998015883228      !
 C         -2.5794085782       -0.2642577252        0.0000480421
 C         -1.8720225444       -1.4763053194       -0.0000164764
 C         -0.5070273547       -1.4533873208       -0.0000158583
 C          0.2023763111       -0.2345195089       -0.0000333313
 C         -0.5033746019        1.0027424307       -0.0000443679
 C         -1.9170548122        0.9307825978        0.0000071324
 N          0.0921587147        2.1954816634        0.0000089919
 N          1.5899018722       -0.3015573654       -0.0000289396
 O          2.2645449379        0.7395357262        0.0000146077
 O          2.1431648523       -1.4064274257        0.0000465338
 H         -3.6578004712       -0.2803315836       -0.0001108832
 H         -2.4016302327       -2.4140617220       -0.0001756799
 H          0.0726772194       -2.3633246872        0.0000374195
 H         -2.4671726383        1.8583483411        0.0000949562
 H         -0.4705038043        3.0293469093        0.0000616446
 H          1.1008829092        2.2511197921        0.0000529313
