  13
        -14.71258907
 C          2.1667270820        0.5665197819        0.0556560212
 C          1.2318371064       -0.3428666038        0.2545985320
 C          0.0000103040       -0.4896864617       -0.5871716175
 C         -1.2315821650       -0.3425599950        0.2549174188
 C         -2.1669528998        0.5662421759        0.0555601383
 H          3.0355751724        0.6394814178        0.6871931115
 H          2.1041854674        1.2753917595       -0.7536104297
 H          1.3150312660       -1.0418547279        1.0768604547
 H         -0.0001923888       -1.4904607321       -1.0318393122
 H          0.0000352329        0.2494068783       -1.3890953893
 H         -1.3143719542       -1.0411081001        1.0775982769
 H         -3.0357270739        0.6392420130        0.6872081841
 H         -2.1050055459        1.2745620180       -0.7542255204
