  14
  -18.8578421500000       0.500042327793301      !
 C          1.4472549316       -0.7313642122       -0.2254813977
 C          1.4474876156        0.7312392928        0.2254117545
 C          0.0431537725        1.2170624228       -0.1270737110
 C         -0.8361039160        0.0000450008        0.0001424497
 O         -2.0497841950        0.0001088974       -0.0000739664
 C          0.0429399367       -1.2171063437        0.1271036736
 H          2.2236141676       -1.3157609557        0.2628163130
 H          1.5986851845       -0.7882067993       -1.3039339709
 H          1.5990570205        0.7880428243        1.3038589393
 H          2.2239113658        1.3155343935       -0.2629937020
 H         -0.3213741770        2.0355800470        0.4912255390
 H         -0.0109241554        1.5429801192       -1.1685307166
 H         -0.0110674498       -1.5428304369        1.1685966792
 H         -0.3218154593       -2.0355920740       -0.4910895961
  14
  -18.8578419900000       0.499957672206699      !
 C          1.4473320748       -0.7336807260        0.2176980272
 C          1.4475183208        0.7335977270       -0.2177718362
 C          0.0431637030        1.2156380378        0.1398307926
 C         -0.8361388584        0.0000347369        0.0000196950
 O         -2.0498445152        0.0001375257       -0.0000404138
 C          0.0429151011       -1.2157380602       -0.1397327043
 H          1.5990526900       -0.8018617602        1.2954471885
 H          2.2236400375       -1.3128840981       -0.2768840164
 H          2.2239704258        1.3127423074        0.2766868481
 H          1.5990528233        0.8017736746       -1.2955444462
 H         -0.0109055920        1.5305712539        1.1846649517
 H         -0.3213676490        2.0406030435       -0.4698774069
 H         -0.3217161472       -2.0405525505        0.4701392292
 H         -0.0113737536       -1.5308078897       -1.1845148487
