  15
  -18.9984836800000       0.500116401430693      !
 C          1.4350903919        0.0002075638       -0.5820308352
 C          0.9691695720        1.1783480381        0.2136480672
 C         -0.3295646685        1.4920846122        0.2930928228
 C         -1.3999752008        0.6755013214       -0.2072750678
 C         -1.3998204775       -0.6758308307       -0.2071938859
 C         -0.3292333797       -1.4921673796        0.2932103874
 C          0.9694743803       -1.1781453490        0.2135030853
 H          2.5152707350        0.0003429711       -0.7071209319
 H          0.9497806962        0.0001061798       -1.5620339088
 H          1.7121968283        1.7770613711        0.7206527111
 H         -0.6254262147        2.4097922754        0.7849185111
 H         -2.3144985042        1.1915628604       -0.4716017036
 H         -2.3139756239       -1.1920543084       -0.4718431548
 H         -0.6248682980       -2.4099532389        0.7850188165
 H          1.7127143703       -1.7768339948        0.7199770419
  15
  -18.9984832400000       0.499883598569307      !
 C          1.4404436514        0.0001782825        0.5687844529
 C          0.9671515457        1.1783166537       -0.2224997062
 C         -0.3322581859        1.4921034083       -0.2900500534
 C         -1.3980319751        0.6754936295        0.2200508442
 C         -1.3978709291       -0.6758194590        0.2200459540
 C         -0.3318899109       -1.4922144586       -0.2899959045
 C          0.9674382099       -1.1781132435       -0.2224728535
 H          0.9641802078        0.0001820084        1.5532276779
 H          2.5217714267        0.0003723294        0.6838673045
 H          1.7055207240        1.7772155621       -0.7358525780
 H         -0.6326308188        2.4097659484       -0.7792624977
 H         -2.3098956244        1.1915158667        0.4930950819
 H         -2.3096812748       -1.1920421731        0.4928847348
 H         -0.6320372004       -2.4099948530       -0.7791312511
 H          1.7058518208       -1.7763570733       -0.7365349816
