  10
  -10.7586514100000       0.132778171182416      !
 C         -1.2748879550       -0.2653583124        0.0000059770
 C          0.0113393918        0.5659131794       -0.0000289556
 N          1.2415174020       -0.2127554166       -0.0000037980
 H         -2.1436686209        0.3870097263        0.0000895852
 H         -1.3179747114       -0.8997440507       -0.8837342054
 H         -1.3178296257       -0.8994894465        0.8839313871
 H          0.0314855088        1.2089855760        0.8840812082
 H          0.0313984224        1.2086735185       -0.8842771930
 H          1.2603754824       -0.8150104042        0.8167721528
 H          1.2602335827       -0.8153457348       -0.8165363414
  10
  -10.7586514100000       0.132778171182416      !
 C         -1.2749214778       -0.2653449420        0.0000123241
 C          0.0113284523        0.5658757957       -0.0000226068
 N          1.2415545193       -0.2127452724        0.0000025489
 H         -2.1437419788        0.3869927967        0.0000524959
 H         -1.3179355963       -0.8995248666       -0.8838229187
 H         -1.3179111357       -0.8995270160        0.8838417977
 H          0.0314097519        1.2087697637        0.8841713587
 H          0.0313765683        1.2088250242       -0.8841854360
 H          1.2604157345       -0.8151598485       -0.8166197974
 H          1.2604207173       -0.8151514894        0.8166496090
  10
  -10.7586514100000       0.132778171182416      !
 C         -1.2748113618       -0.2653868295        0.0000141818
 C          0.0113417968        0.5659695930       -0.0000207538
 N          1.2414361723       -0.2127864985        0.0000044073
 H         -1.3177823135       -0.8996305951       -0.8837990245
 H         -1.3177995710       -0.8995101466        0.8838853054
 H         -2.1436020933        0.3869801633       -0.0000325435
 H          0.0315048639        1.2089731710        0.8841080331
 H          0.0314295286        1.2087673671       -0.8842835038
 H          1.2602006487       -0.8152717432       -0.8166152580
 H          1.2602564193       -0.8151295228        0.8167540594
  10
  -10.7586514000000       0.132776766137976      !
 C         -1.2749213778       -0.2653584510        0.0000152616
 C          0.0113217114        0.5659113983       -0.0000196711
 N          1.2415621251       -0.2127639103        0.0000054866
 H         -1.3179791214       -0.8993815721        0.8839389492
 H         -2.1437975340        0.3869201471       -0.0001447519
 H         -1.3178469373       -0.8997486507       -0.8836836440
 H          0.0312460281        1.2092049443        0.8839242286
 H          0.0313896301        1.2085748627       -0.8843632816
 H          1.2604861676       -0.8153685069       -0.8165023374
 H          1.2605092677       -0.8149811320        0.8168071371
  10
  -10.7586514000000       0.132776766137976      !
 C         -1.2749118887       -0.2653431682        0.0000142781
 C          0.0113270238        0.5658722196       -0.0000206525
 N          1.2415408221       -0.2127436402        0.0000045031
 H         -1.3178358961       -0.8995815688       -0.8837955435
 H         -1.3178267254       -0.8994809715        0.8839037047
 H         -2.1437321011        0.3870415611       -0.0000412367
 H          0.0314084249        1.2088259529        0.8841341769
 H          0.0313865591        1.2087304649       -0.8842435712
 H          1.2603677006       -0.8151229348        0.8166492882
 H          1.2603591963       -0.8151893449       -0.8165934363
  10
  -10.7586513600000       0.132771146109393      !
 C         -1.2749839981       -0.2653250893        0.0000342602
 C          0.0113317877        0.5657956185       -0.0000006671
 N          1.2416323320       -0.2127228201        0.0000244845
 H         -1.3188799626       -0.9005516923        0.8831308979
 H         -2.1434828075        0.3875421640        0.0000657590
 H         -1.3177449198       -0.8985309893       -0.8844482137
 H          0.0311336766        1.2077293125        0.8848258959
 H          0.0316002566        1.2097007937       -0.8835598063
 H          1.2602857674       -0.8157081872        0.8162598843
 H          1.2607459904       -0.8145502104       -0.8170149619
  10
  -10.7567060300000       1.694696512594541E-002 !
 C         -1.2548007656       -0.3047745402        0.0179024332
 C         -0.0088963190        0.5720833546        0.0178659292
 N          1.1909923376       -0.2564964930        0.0178930385
 H         -2.1466656611        0.3117265824        0.0852926977
 H         -1.3044431352       -0.8927776197       -0.8958572901
 H         -1.2263760358       -0.9839187166        0.8647783973
 H          0.0130937040        1.1772066029        0.9287492512
 H         -0.0531919264        1.2630797780       -0.8426081340
 H          1.2085387060       -0.8270948899       -0.8211930432
 H          2.0169484521        0.3308627266        0.0059702439
  10
  -10.7567060000000       1.694642713873998E-002 !
 C         -1.2547450590       -0.3048033106       -0.0178723299
 C         -0.0088809132        0.5721366675       -0.0179088368
 N          1.1909133735       -0.2565177106       -0.0178817245
 H         -1.3043386706       -0.8929154401        0.8958284491
 H         -2.1466113076        0.3117140598       -0.0851719543
 H         -1.2263718153       -0.9838882393       -0.8647786345
 H         -0.0530837430        1.2631796581        0.8425461369
 H          0.0132788774        1.1771828957       -0.9288428136
 H          2.0168944101        0.3308263014       -0.0060081580
 H          1.2083862825       -0.8270123752        0.8212902044
  10
  -10.7567059700000       1.694588916864498E-002 !
 C         -1.2547701968       -0.3047911073       -0.0178733497
 C         -0.0088864865        0.5720992621       -0.0179098549
 N          1.1909460637       -0.2565075648       -0.0178827444
 H         -1.2265344937       -0.9839239516       -0.8647657816
 H         -1.3042828174       -0.8928228715        0.8958832908
 H         -2.1466083597        0.3117407148       -0.0851272891
 H         -0.0530640737        1.2631947086        0.8425026383
 H          0.0131895292        1.1771035181       -0.9288653255
 H          1.2084511815       -0.8269131741        0.8213168316
 H          2.0169147497        0.3308672353       -0.0060426764
  10
  -10.7567059600000       1.694570984905390E-002 !
 C         -1.2547950065       -0.3047842916        0.0178957594
 C         -0.0088848507        0.5720928510        0.0178592547
 N          1.1909689051       -0.2564984218        0.0178863645
 H         -1.3044502988       -0.8928334090       -0.8958235875
 H         -1.2264221434       -0.9839028872        0.8647935838
 H         -2.1466562298        0.3117217307        0.0852846398
 H          0.0132379951        1.1770211679        0.9288518442
 H         -0.0531210042        1.2632405529       -0.8424984710
 H          1.2084592987       -0.8269649367       -0.8212977502
 H          2.0169768295        0.3308320869        0.0060736692
  10
  -10.7567059600000       1.694570984905390E-002 !
 C         -1.2547721177       -0.3047956808        0.0179016114
 C         -0.0088795696        0.5721150997        0.0178651055
 N          1.1909479909       -0.2565093918        0.0178922166
 H         -1.3043323851       -0.8929218242       -0.8957956092
 H         -1.2264963952       -0.9838047302        0.8648906769
 H         -2.1466501732        0.3117303464        0.0851457199
 H          0.0131745875        1.1771204052        0.9288054524
 H         -0.0531032954        1.2631338727       -0.8426390386
 H          2.0169105632        0.3308211841        0.0060538315
 H          1.2084764991       -0.8269419082       -0.8212978820
  10
  -10.7567059300000       1.694517190172951E-002 !
 C         -1.2550897363       -0.3046805621        0.0178959145
 C         -0.0088994304        0.5718540879        0.0178594217
 N          1.1912431449       -0.2563794486        0.0178865173
 H         -1.2267537553       -0.9838012597        0.8647775908
 H         -2.1471132928        0.3116929968        0.0850322299
 H         -1.3044072138       -0.8928270857       -0.8957643090
 H          0.0130963441        1.1767937951        0.9288239479
 H         -0.0530771261        1.2630611960       -0.8424462926
 H          1.2089312684       -0.8268146240       -0.8213103555
 H          2.0172230543        0.3309650675        0.0062651538
  10
  -10.7567059200000       1.694499258972846E-002 !
 C         -1.2551283227       -0.3046734830        0.0178971995
 C         -0.0089033559        0.5718351346        0.0178607076
 N          1.1912753839       -0.2563708115        0.0178878020
 H         -2.1473027296        0.3116044459        0.0850402273
 H         -1.3043368376       -0.8928249134       -0.8957571680
 H         -1.2267028904       -0.9838533801        0.8647215408
 H          0.0131513765        1.1768079135        0.9287985032
 H         -0.0530874252        1.2630568716       -0.8424237846
 H          2.0172478360        0.3311435803        0.0062449584
 H          1.2089885215       -0.8268429617       -0.8212947995
  10
  -10.7567059100000       1.694481327965673E-002 !
 C         -1.2547998136       -0.3047825358       -0.0178682636
 C         -0.0088897441        0.5720909338       -0.0179047682
 N          1.1909751682       -0.2564987935       -0.0178776585
 H         -1.3042932112       -0.8928978934        0.8958415221
 H         -2.1466726911        0.3117086127       -0.0850826170
 H         -1.2265396494       -0.9838354467       -0.8648159289
 H         -0.0530959331        1.2632257712        0.8424952824
 H          0.0131667987        1.1769948967       -0.9289383435
 H          1.2085337958       -0.8269257786        0.8213293404
 H          2.0169538948        0.3308512313       -0.0061194628
  10
  -10.7567058900000       1.694445466514187E-002 !
 C         -1.2547532350       -0.3048017086       -0.0178739534
 C         -0.0088798846        0.5721354790       -0.0179104602
 N          1.1909199022       -0.2565149612       -0.0178833481
 H         -2.1466437981        0.3116646433       -0.0851139794
 H         -1.2264099572       -0.9838628715       -0.8648098796
 H         -1.3042793671       -0.8929299008        0.8958146545
 H         -0.0530413553        1.2631586707        0.8425629010
 H          0.0132538816        1.1771968348       -0.9288424406
 H          2.0168838115        0.3308273083       -0.0059511437
 H          1.2083852606       -0.8270109590        0.8212643712
  10
  -10.7567058600000       1.694391675766372E-002 !
 C         -1.2551081463       -0.3046734883       -0.0178645886
 C         -0.0089016951        0.5718315877       -0.0179010804
 N          1.1912640793       -0.2563726193       -0.0178739860
 H         -1.2269630485       -0.9836625576       -0.8648507360
 H         -1.3042621151       -0.8929590646        0.8957130396
 H         -2.1471164321        0.3117292095       -0.0847269346
 H         -0.0530807022        1.2631147925        0.8423432839
 H          0.0130479498        1.1766967594       -0.9289126241
 H          2.0172411032        0.3309419135       -0.0063818624
 H          1.2089879738       -0.8267020458        0.8213868564
  10
  -10.7567058500000       1.694373745894447E-002 !
 C         -1.2547902525       -0.3047865467       -0.0178692521
 C         -0.0088874426        0.5720929325       -0.0179057569
 N          1.1909718625       -0.2565035203       -0.0178786469
 H         -2.1466550680        0.3117265922       -0.0851745743
 H         -1.2264488165       -0.9838132435       -0.8648281385
 H         -1.3043460513       -0.8929367482        0.8958392753
 H         -0.0531924983        1.2632198585        0.8424770329
 H          0.0132041858        1.1770816278       -0.9288691878
 H          1.2084821385       -0.8269311510        0.8213044423
 H          2.0169136959        0.3308641207       -0.0060017621
  10
  -10.7567058100000       1.694302028310419E-002 !
 C         -1.2547998040       -0.3047528361        0.0178946764
 C         -0.0088808982        0.5720841239        0.0178581732
 N          1.1909621870       -0.2564622331        0.0178852814
 H         -1.2253592571       -0.9850495131        0.8637725972
 H         -2.1465092710        0.3117491485        0.0874937767
 H         -1.3056027091       -0.8916450288       -0.8967110989
 H          0.0133324855        1.1769348014        0.9289639377
 H         -0.0529774952        1.2629386864       -0.8427596709
 H          2.0169410890        0.3308511849        0.0055978321
 H          1.2083030301       -0.8274386997       -0.8209326029
