  15
        -16.90292567
 C         -2.1453288646       -0.7885805590        0.3774900415
 C         -1.2380914050       -0.2039389416       -0.6878280391
 S         -0.0001430751        0.9558612947       -0.0006327414
 C          1.2390146235       -0.2017740474        0.6882439193
 C          2.1446865143       -0.7898101151       -0.3766029215
 H         -2.8895450867       -1.4313115504       -0.0869664130
 H         -1.5777676681       -1.3800350159        1.0925947346
 H         -2.6536975132        0.0078192740        0.9155305552
 H         -1.8052734567        0.3969961356       -1.3970406449
 H         -0.6966831773       -0.9773249560       -1.2301524008
 H          1.8074603190        0.4016529014        1.3944063883
 H          0.6985975519       -0.9733961006        1.2340750807
 H          2.8909321146       -1.4290899945        0.0891939288
 H          1.5766480855       -1.3855749790       -1.0877339192
 H          2.6505335022        0.0050411194       -0.9193051277
