  16
    -0.138519 !GC
 C          0.0000000000        0.0000000000        0.0000000000
 C          1.3809639754        0.0000000000        0.0000000000
 C          2.1138784393        1.2011077396        0.0000000000
 C          1.4005405645        2.4041351503       -0.0076525033
 C          0.0109625047        2.3838486376       -0.0065626603
 C         -0.7081855833        1.1885261563       -0.0029488712
 N         -0.6908663759        3.6137651824       -0.0186929895
 O         -1.9158322910        3.5963725344        0.0004007770
 O         -0.0524226413        4.6589300421       -0.0466991382
 N          3.4606848594        1.1947937092        0.1167898791
 H         -0.5341872910       -0.9364280236       -0.0001849427
 H          1.9159250592       -0.9368028692        0.0049386462
 H          1.9122673930        3.3537281912       -0.0071829642
 H         -1.7850330142        1.2147451009       -0.0074057041
 H          3.9426957336        2.0514459286        0.3161360478
 H          3.9350434654        0.3259909104        0.2818408445
  16
    -0.133607 !GC
 C          0.0000000000        0.0000000000        0.0000000000
 C          1.3809314246        0.0000000000        0.0000000000
 C          2.1139857461        1.2012106932        0.0000000000
 C          1.4005942498        2.4042010021       -0.0027289273
 C          0.0109541306        2.3838784741       -0.0020331192
 C         -0.7082331871        1.1884696231       -0.0007688130
 N         -0.6912537289        3.6136463589       -0.0061309246
 O         -1.9161803809        3.5957305499       -0.0003077296
 O         -0.0531338886        4.6591650467       -0.0172634421
 N          3.4652624202        1.1919731696        0.0400573246
 H         -0.5341555606       -0.9364486986        0.0009613052
 H          1.9160028703       -0.9366991102        0.0016422031
 H          1.9122520620        3.3537168367       -0.0026611651
 H         -1.7850869699        1.2145516107       -0.0006023071
 H          3.9666157871        2.0541134637       -0.0686922555
 H          3.9567477629        0.3255018461       -0.0822969254
  16
    -0.120292 !GC
 C          0.0000000000        0.0000000000        0.0000000000
 C          1.3809572886        0.0000000000        0.0000000000
 C          2.1138712623        1.2011455796        0.0000000000
 C          1.4004761768        2.4041953247       -0.0026155151
 C          0.0109132605        2.3838455176       -0.0027695932
 C         -0.7082067291        1.1885238462       -0.0014285251
 N         -0.6909959119        3.6137402957       -0.0079537082
 O         -0.0525973411        4.6594707424       -0.0171795821
 O         -1.9159183299        3.5958627293       -0.0041145586
 N          3.4649769627        1.1922186232        0.0394873062
 H         -0.5341905864       -0.9364285205       -0.0004553130
 H          1.9159381277       -0.9368151991       -0.0001531390
 H          1.9122273557        3.3537543819       -0.0023003613
 H         -1.7850522746        1.2147346057       -0.0041172740
 H          3.9523635087        1.9663132138        0.4505548119
 H          3.9396676767        0.4036026871        0.4391423140
  16
    -0.100509 !GC
 C          0.0000000000        0.0000000000        0.0000000000
 C          1.3809248640        0.0000000000        0.0000000000
 C          2.1139786951        1.2012485344        0.0000000000
 C          1.4005471866        2.4042506127        0.0023082866
 C          0.0109221789        2.3838911245        0.0017604296
 C         -0.7082541135        1.1884648004        0.0007520165
 N         -0.6913516034        3.6136001975        0.0046072761
 O         -0.0534390263        4.6594173062        0.0153664663
 O         -1.9161228297        3.5954184159       -0.0017174027
 N          3.4651679412        1.1920744833       -0.0374159699
 H         -0.5341593650       -0.9364493813        0.0006911527
 H          1.9160160017       -0.9366934136       -0.0034487434
 H          1.9122264997        3.3537336481        0.0022217662
 H         -1.7850986576        1.2145339664        0.0026864606
 H          3.9670779078        2.0528169879        0.0787489083
 H          3.9569256138        0.3259841993        0.0861047471
  16
    -0.001720 !GC
 C          0.0000000000        0.0000000000        0.0000000000
 C          1.3809639754        0.0000000000        0.0000000000
 C          2.1139597475        1.2011018718        0.0000000000
 C          1.4006119786        2.4041570811       -0.0027491039
 C          0.0109961378        2.3838566416       -0.0023978496
 C         -0.7081619757        1.1885239376       -0.0009876070
 N         -0.6909047181        3.6136855239       -0.0071612852
 O         -1.9158350349        3.5960872378       -0.0026742511
 O         -0.0525971659        4.6589930144       -0.0173286713
 N          3.4651971543        1.1920443912        0.0399411210
 H         -0.5342194844       -0.9363973055        0.0002133495
 H          1.9159140547       -0.9367846570       -0.0002364424
 H          1.9123586204        3.3536407499       -0.0024070188
 H         -1.7849935794        1.2147244584       -0.0018971437
 H          3.9560915315        0.3273680041       -0.0913189066
 H          3.9668511262        2.0534242539       -0.0768844630
  16
    -0.001047 !GC
 C          0.0000000000        0.0000000000        0.0000000000
 C          1.3809181772        0.0000000000        0.0000000000
 C          2.1138902004        1.2012922459        0.0000000000
 C          1.4004118427        2.4042885718        0.0024420242
 C          0.0108400454        2.3838826446        0.0013891149
 C         -0.7082988668        1.1884653508        0.0003111207
 N         -0.6914421568        3.6136601642        0.0038158730
 O         -1.9165120608        3.5955591130       -0.0041608703
 O         -0.0533059951        4.6594443113        0.0145188921
 N          3.4649221604        1.1922643337       -0.0378597726
 H         -0.5341304642       -0.9364809358        0.0000224689
 H          1.9160400793       -0.9367242366       -0.0033655528
 H          1.9120955132        3.3538470783        0.0023283975
 H         -1.7851620321        1.2145456111        0.0004663276
 H          3.9428926089        0.4043255991       -0.4339092177
 H          3.9521836128        1.9708397067       -0.4419418635
