  7
    -0.347926 !GC
 C          0.0000000000        0.0000000000        0.0000000000
 N          1.5400669856        0.0000000000        0.0000000000
 O          2.0615086917        1.0726141022        0.0000000000
 O          2.0616114056       -1.0618656672        0.1507373047
 Cl        -0.5640500706       -1.3954426229        0.8989180783
 Cl        -0.5643501523        1.5153111547        0.6776737710
 Cl        -0.4177181487       -0.1302975973       -1.7248447679
  7
    -0.347926 !GC
 C          0.0000000000        0.0000000000        0.0000000000
 N          1.5399564645        0.0000000000        0.0000000000
 O          2.0613467215        1.0726786713        0.0000000000
 O          2.0616039886       -1.0617320975        0.1510953894
 Cl        -0.4178131690       -0.1409327365       -1.7243623611
 Cl        -0.5633571583       -1.3903115043        0.9075828903
 Cl        -0.5646661047        1.5183840548        0.6694284392
