  7
  -26.7194931300000       0.168584525137615      !
 C         -0.2022433141        0.0019932662       -0.0065776833
 N          1.3199575194       -0.0161186812       -0.2396288914
 O          1.8266485668       -1.0943561030       -0.2943887669
 O          1.8517745486        1.0500824499       -0.2931200853
 Cl        -0.8634787436        1.4649246483       -0.7110562451
 Cl        -0.8964890046       -1.4535854584       -0.6936742320
 Cl        -0.3530233943        0.0143337488        1.7667655149
  7
  -26.7194882600000       0.167717974910417      !
 C         -0.2024638312        0.0021443030       -0.0064179919
 N          1.3197050482       -0.0165539851       -0.2397024361
 O          1.8501049691        1.0494678111       -0.3077823150
 O          1.8276357996       -1.0948740773       -0.2797792852
 Cl        -0.8640652185        1.4620146592       -0.7163265083
 Cl        -0.8954744343       -1.4566306841       -0.6885371786
 Cl        -0.3529691037        0.0209209068        1.7668974849
  7
  -26.7194874500000       0.167574279083206      !
 C         -0.1924554327        0.0432516963        0.0453512984
 N          1.3203724512       -0.0150614027       -0.2377299635
 O          1.6499960693        0.2127668942       -1.3610216121
 O          2.0108991585       -0.3314314231        0.6817513062
 Cl        -0.9285114980        1.1963232465       -1.0509074027
 Cl        -0.7456828437       -1.6137304832       -0.2943922504
 Cl        -0.4343665816        0.4622564890        1.7304026144
  7
  -26.7194794700000       0.166165173601393      !
 C         -0.1897207345        0.0336086660        0.0619359572
 N          1.3214931043       -0.0122564813       -0.2314552560
 O          1.9619414497       -0.7562131427        0.4458350475
 O          1.6968725314        0.6629687479       -1.1400504581
 Cl        -0.8062395605        1.6088362937       -0.3982813466
 Cl        -0.8558979036       -1.2489802151       -0.9766574978
 Cl        -0.4468534287       -0.3243198720        1.7586887686
  7
  -26.7194727100000       0.164980769433346      !
 C         -0.1933685710       -0.0388529127        0.0463102038
 N          1.3199255010       -0.0177123099       -0.2382240678
 O          2.0182961728        0.2936725617        0.6770839905
 O          1.6431076079       -0.2647513645       -1.3593619205
 Cl        -0.7082184238        1.6262458395       -0.3145979792
 Cl        -0.9551145434       -1.1888803782       -1.0354955881
 Cl        -0.4449715254       -0.4302568488        1.7364241788
  7
  -26.7194726900000       0.164977277834022      !
 C         -0.1905073461       -0.0290054207        0.0624818114
 N          1.3212232008       -0.0199809776       -0.2309621030
 O          1.6812236758       -0.7120574068       -1.1331095608
 O          1.9780466009        0.7168679903        0.4384481481
 Cl        -0.8265219869        1.2583901964       -0.9891744498
 Cl        -0.8426076278       -1.5942095298       -0.3826897139
 Cl        -0.4396940767        0.3513688938        1.7554356037
