  13
  -19.1317419700000       0.500153438247676      !
 C         -2.3122408159        0.0052337962       -0.0000572498
 C         -1.6123803296        1.2011302677        0.0000623266
 C         -0.2302119232        1.1986743243        0.0001025666
 C          0.4573529420       -0.0085679509       -0.0002548480
 C         -0.2384296409       -1.2095029704       -0.0000760410
 C         -1.6216781543       -1.1952568873        0.0000064066
 S          2.2281848039        0.0431452646        0.0000421525
 H         -3.3911188551        0.0095657125        0.0002362265
 H         -2.1423463679        2.1413911441       -0.0001847698
 H          0.3236128917        2.1257477511       -0.0001646268
 H          0.2939307703       -2.1484749254        0.0002288622
 H         -2.1604211267       -2.1304877238        0.0009007771
 H          2.4177838631       -1.2715089901        0.0002264455
  13
  -19.1317413900000       0.499846561752324      !
 C         -2.3121915261       -0.0211121501        0.0000027150
 C         -1.6298392399        1.1840986015        0.0001208964
 C         -0.2466960813        1.2078706735        0.0000152467
 C          0.4573082765        0.0116455654        0.0000045439
 C         -0.2220992957       -1.2003178989       -0.0000157622
 C         -1.6042095821       -1.2121914578       -0.0000796421
 S          2.2285207584       -0.0277903935       -0.0000172680
 H         -3.3910034514       -0.0328727964        0.0000767479
 H         -2.1749969754        2.1155716372        0.0002359877
 H          0.2792635212        2.1505126156        0.0000750681
 H          0.3378950911       -2.1236978795       -0.0002506069
 H         -2.1276988125       -2.1560134494       -0.0001306277
 H          2.4089569715        1.2881355589       -0.0000291826
