  13
  -16.6897656900000       4.392454695994087E-002 !
 C          1.2046662950        1.2611533200        0.0528100434
 C          0.4330157754       -0.0001416561       -0.3458051135
 C          1.2103575463       -1.2580162581        0.0521357776
 C         -0.8823773019       -0.0024502564        0.3680985350
 O         -1.9705852217       -0.0007958955       -0.1544952094
 H          2.1673866166        1.2726105230       -0.4499391106
 H          1.3711251927        1.2799484598        1.1269426815
 H          0.6526420095        2.1537198689       -0.2310664593
 H          0.2489863942       -0.0000898070       -1.4238876541
 H          2.1731219824       -1.2649816381       -0.4506273292
 H          0.6623991867       -2.1529694180       -0.2320794910
 H          1.3769563269       -1.2765583018        1.1262483380
 H         -0.7958662482       -0.0055422148        1.4705696815
  13
  -16.6897656900000       4.392454695994087E-002 !
 C          1.2051893252        1.2611693323        0.0528603768
 C          0.4330154802        0.0002164097       -0.3457449508
 C          1.2099063133       -1.2580242372        0.0520432537
 C         -0.8824139631       -0.0019485373        0.3680984431
 O         -1.9706196637       -0.0015597905       -0.1545059874
 H          1.3715905235        1.2799017187        1.1269819211
 H          0.6534844603        2.1539348449       -0.2309800429
 H          2.1679651347        1.2723684744       -0.4497936847
 H          0.2490288909        0.0002830639       -1.4238227212
 H          1.3765329575       -1.2767434668        1.1261427364
 H          2.1726620251       -1.2654106735       -0.4507266159
 H          0.6615279577       -2.1526975112       -0.2322419339
 H         -0.7959089466       -0.0037144164        1.4705590178
  13
  -16.6897656800000       4.392408215507161E-002 !
 C          1.2050382763        1.2610755159        0.0528543951
 C          0.4329767327        0.0000643621       -0.3458021257
 C          1.2101567626       -1.2579380859        0.0520934685
 C         -0.8824313308       -0.0021515010        0.3680949825
 O         -1.9706620018       -0.0012502686       -0.1544992758
 H          1.3714169151        1.2798624459        1.1269910362
 H          0.6531545151        2.1537094048       -0.2310241278
 H          2.1678269910        1.2724720593       -0.4497840044
 H          0.2489675159        0.0001335131       -1.4238865326
 H          0.6618735825       -2.1526595218       -0.2321892403
 H          1.3767876308       -1.2766346956        1.1261971783
 H          2.1729111815       -1.2652056392       -0.4506888298
 H         -0.7958990717       -0.0043469915        1.4705921159
  13
  -16.6897656700000       4.392361735512087E-002 !
 C          1.2047022432        1.2612146839        0.0527957725
 C          0.4330383171       -0.0001129780       -0.3457676412
 C          1.2103199600       -1.2580626607        0.0521181564
 C         -0.8823750778       -0.0024314046        0.3681022557
 O         -1.9705961862       -0.0008360134       -0.1545055110
 H          0.6526269983        2.1537357566       -0.2311481286
 H          2.1674461636        1.2727588614       -0.4499202269
 H          1.3711391939        1.2800754769        1.1269381994
 H          0.2490112594        0.0000232749       -1.4238421450
 H          1.3768859533       -1.2766505420        1.1262053278
 H          2.1731271320       -1.2652293263       -0.4505231198
 H          0.6622596412       -2.1529500410       -0.2320722321
 H         -0.7958464299       -0.0057338326        1.4705756740
  13
  -16.6897656300000       4.392175820466713E-002 !
 C          1.2036393263        1.2610906746        0.0526486290
 C          0.4329971228       -0.0009489177       -0.3457393487
 C          1.2115203770       -1.2580139777        0.0522573612
 C         -0.8824416280       -0.0034748318        0.3680877011
 O         -1.9706406848        0.0008479688       -0.1544987414
 H          2.1664105668        1.2733020044       -0.4499990412
 H          1.3699568727        1.2802745142        1.1267740885
 H          0.6507873667        2.1530650986       -0.2314403134
 H          0.2490063638       -0.0010878556       -1.4238123379
 H          1.3782405215       -1.2763148278        1.1263560686
 H          2.1742672255       -1.2643434802       -0.4505509558
 H          0.6642756994       -2.1534415937       -0.2318211134
 H         -0.7959429328       -0.0088623418        1.4705303920
  13
  -16.6897655200000       4.391664594670661E-002 !
 C          1.2083096912        1.2612863473        0.0532714725
 C          0.4330354011        0.0025494862       -0.3457450096
 C          1.2067119315       -1.2579919933        0.0516279054
 C         -0.8823944121        0.0010378704        0.3680916097
 O         -1.9705689836       -0.0063289087       -0.1545020803
 H          2.1710726185        1.2704675341       -0.4494455152
 H          1.3749075799        1.2791605710        1.1273818843
 H          0.6587722228        2.1555488207       -0.2301011373
 H          0.2490151201        0.0029879342       -1.4238220783
 H          0.6558306847       -2.1510874205       -0.2327584792
 H          1.3734747893       -1.2773556385        1.1256914994
 H          2.1693447876       -1.2677424604       -0.4512976382
 H         -0.7959276331        0.0064784560        1.4705409271
  13
  -16.6897655100000       4.391618122544504E-002 !
 C          1.2072882072        1.2612166011        0.0531462313
 C          0.4330148818        0.0017700014       -0.3457450952
 C          1.2078053378       -1.2579895461        0.0517556255
 C         -0.8824144400        0.0001061458        0.3681007326
 O         -1.9706143687       -0.0047725135       -0.1545092301
 H          0.6571024411        2.1550024813       -0.2304432222
 H          2.1700748857        1.2709957507       -0.4495211841
 H          1.3737692507        1.2793909703        1.1272753672
 H          0.2490283158        0.0020931942       -1.4238231043
 H          0.6578824355       -2.1516426523       -0.2327493013
 H          1.3743316532       -1.2772302770        1.1258515853
 H          2.1705627577       -1.2668437509       -0.4509906863
 H         -0.7959150270        0.0031797685        1.4705662715
  13
  -16.6897654700000       4.391432238973959E-002 !
 C          1.2020514703        1.2610610190        0.0524573313
 C          0.4330214083       -0.0020942313       -0.3458155516
 C          1.2130127420       -1.2580154734        0.0525048136
 C         -0.8823804226       -0.0050361483        0.3680730386
 O         -1.9706092031        0.0032452198       -0.1544755758
 H          0.6479856917        2.1522222198       -0.2319113165
 H          2.1647870223        1.2743158832       -0.4502333632
 H          1.3683444533        1.2806591280        1.1266093141
 H          0.2490379763       -0.0023916988       -1.4239078722
 H          2.1757822403       -1.2633075766       -0.4502805435
 H          0.6668240052       -2.1541655277       -0.2313025539
 H          1.3796924059       -1.2758289112        1.1266039086
 H         -0.7958326713       -0.0143407108        1.4705051165
  13
  -16.6897654600000       4.391385769306565E-002 !
 C          1.2086522784        1.2611807632        0.0533274903
 C          0.4327964040        0.0025558766       -0.3454860027
 C          1.2072748218       -1.2579605882        0.0514473628
 C         -0.8828849353        0.0017616620        0.3680248524
 O         -1.9709578640       -0.0065573259       -0.1544961686
 H          1.3768134746        1.2788508185        1.1272648881
 H          0.6595117161        2.1558591280       -0.2293134739
 H          2.1707639330        1.2705659758       -0.4504011235
 H          0.2488112334        0.0032593309       -1.4235243438
 H          2.1695495363       -1.2688814247       -0.4520605738
 H          0.6566659833       -2.1512352073       -0.2323056345
 H          1.3750398252       -1.2776782675        1.1253043077
 H         -0.7965894205        0.0035261847        1.4703245600
  13
  -16.6895129200000       3.361570639532836E-002 !
 C          1.3338845789        1.2366088597        0.2081544324
 C          0.4904516070        0.1186566520       -0.4108764793
 C          0.9141307404       -1.2624620559        0.0785799923
 C         -0.9639560675        0.3757116328       -0.1592872273
 O         -1.7732418847       -0.4335665024        0.2236944184
 H          1.2341008502        1.2269866962        1.2907915268
 H          1.0195872237        2.2086343058       -0.1624852232
 H          2.3800681606        1.0893090605       -0.0428964033
 H          0.6049150028        0.1685554385       -1.5017638015
 H          1.9446410192       -1.4642826325       -0.1979231317
 H          0.2738175440       -2.0268433569       -0.3547743808
 H          0.8219188402       -1.3200157353        1.1606642172
 H         -1.2770163703        1.4169340193       -0.3650191532
  13
  -16.6895129200000       3.361570639532836E-002 !
 C          1.3335470749        1.2365802395        0.2083107681
 C          0.4905248669        0.1185208734       -0.4111393090
 C          0.9141508946       -1.2624537970        0.0787652034
 C         -0.9639337234        0.3755940130       -0.1599353010
 O         -1.7730156860       -0.4333271224        0.2241710549
 H          1.2333232555        1.2270542258        1.2909187548
 H          1.0193047437        2.2085275202       -0.1625432249
 H          2.3798344450        1.0893791946       -0.0423312547
 H          0.6054233738        0.1684210232       -1.5019836543
 H          0.2744551999       -2.0269969434       -0.3551762496
 H          0.8210178410       -1.3201401660        1.1607746829
 H          1.9449318184       -1.4639929669       -0.1968912979
 H         -1.2772065935        1.4164882977       -0.3669554100
  13
  -16.6895129100000       3.361535067763640E-002 !
 C          1.3339821895        1.2365939128        0.2081294936
 C          0.4904282912        0.1187052485       -0.4108537742
 C          0.9140960454       -1.2624297596        0.0785546604
 C         -0.9639632258        0.3757258331       -0.1591388594
 O         -1.7732761898       -0.4336361210        0.2235950415
 H          2.3801410303        1.0892694622       -0.0430211299
 H          1.2342764136        1.2269822223        1.2907794375
 H          1.0196919659        2.2086252417       -0.1624825845
 H          0.6047869007        0.1686024659       -1.5017610981
 H          0.2736389208       -2.0267592252       -0.3546641171
 H          0.8221344194       -1.3199906012        1.1606627289
 H          1.9445175084       -1.4643058597       -0.1982110243
 H         -1.2769969285        1.4170041396       -0.3645706125
  13
  -16.6895129100000       3.361535067763640E-002 !
 C          1.3339507076        1.2365928153        0.2081455144
 C          0.4904459496        0.1186962154       -0.4108810796
 C          0.9140804969       -1.2624240037        0.0785753014
 C         -0.9639577669        0.3757092555       -0.1592162369
 O         -1.7732482959       -0.4336175786        0.2236516651
 H          1.0196561457        2.2086152969       -0.1625035881
 H          2.3801224683        1.0892521229       -0.0429500026
 H          1.2341825789        1.2269718466        1.2907906501
 H          0.6048681561        0.1685948996       -1.5017803821
 H          0.2736821312       -2.0267626156       -0.3547254450
 H          0.8219911208       -1.3199758482        1.1606745404
 H          1.9445437950       -1.4642657423       -0.1980684813
 H         -1.2770139856        1.4169532261       -0.3647939513
  13
  -16.6895129000000       3.361499496358223E-002 !
 C          1.3339451646        1.2366000736        0.2081250158
 C          0.4904277917        0.1186785089       -0.4108300457
 C          0.9141480052       -1.2624602214        0.0785414208
 C         -0.9639594291        0.3757455171       -0.1591335010
 O         -1.7732938367       -0.4336088926        0.2235844227
 H          1.2342571752        1.2269912469        1.2907722608
 H          1.0196311967        2.2086275446       -0.1624813502
 H          2.3801023503        1.0892930971       -0.0430354920
 H          0.6047792065        0.1685760438       -1.5017359435
 H          0.8221927592       -1.3200037759        1.1606458935
 H          1.9445747787       -1.4643554597       -0.1982123664
 H          0.2736843685       -2.0268029491       -0.3546492125
 H         -1.2769687461        1.4170435423       -0.3645391122
  13
  -16.6895128800000       3.361428354676622E-002 !
 C          1.3337007773        1.2368247491        0.2081935310
 C          0.4906152716        0.1186182309       -0.4109193441
 C          0.9138753462       -1.2625789429        0.0786578539
 C         -0.9638742387        0.3755622275       -0.1597130517
 O         -1.7730316275       -0.4334930819        0.2239889256
 H          1.0195738288        2.2088449883       -0.1626439010
 H          2.3799792286        1.0895234542       -0.0424225289
 H          1.2334503216        1.2272471970        1.2907852060
 H          0.6054972011        0.1684836624       -1.5017511937
 H          0.8208443924       -1.3201801624        1.1606539077
 H          1.9446258167       -1.4641574762       -0.1970460875
 H          0.2740967165       -2.0271529402       -0.3551782183
 H         -1.2770645448        1.4165620803       -0.3662871102
  13
  -16.6895128700000       3.361392784413069E-002 !
 C          1.3340672144        1.2365813128        0.2080393739
 C          0.4903559929        0.1187354488       -0.4106688602
 C          0.9141848932       -1.2624789322        0.0784211902
 C         -0.9639744442        0.3758688176       -0.1587130171
 O         -1.7733713883       -0.4337291578        0.2232852894
 H          2.3801128793        1.0892051073       -0.0434465398
 H          1.2346743589        1.2270336816        1.2906956712
 H          1.0197091559        2.2085711217       -0.1625571149
 H          0.6043555111        0.1686615414       -1.5016094154
 H          0.8230286246       -1.3200812516        1.1605602232
 H          1.9443738051       -1.4645053710       -0.1990552555
 H          0.2732926883       -2.0267006497       -0.3543481145
 H         -1.2769223640        1.4173928738       -0.3632045655
  13
  -16.6895128300000       3.361250507084911E-002 !
 C          1.3341011896        1.2366289226        0.2080354586
 C          0.4903931350        0.1187575516       -0.4106730954
 C          0.9141244161       -1.2624912056        0.0784315839
 C         -0.9639436334        0.3758287398       -0.1586962073
 O         -1.7734033960       -0.4337451123        0.2232797454
 H          1.0197958866        2.2087155988       -0.1624376043
 H          2.3802030733        1.0892604145       -0.0433269452
 H          1.2345748552        1.2269179808        1.2906904767
 H          0.6044702399        0.1688013334       -1.5016054593
 H          1.9443335160       -1.4645140929       -0.1990541782
 H          0.2732763544       -2.0267006199       -0.3544526195
 H          0.8228660416       -1.3201136563        1.1606220477
 H         -1.2768811725        1.4172564654       -0.3635398647
  13
  -16.6895128200000       3.361214938690685E-002 !
 C          1.3344227352        1.2365917710        0.2079296258
 C          0.4903196972        0.1188775191       -0.4105189521
 C          0.9141381933       -1.2624504599        0.0782945113
 C         -0.9639862923        0.3759502067       -0.1581572350
 O         -1.7736453046       -0.4339679603        0.2228906163
 H          2.3804348127        1.0889661863       -0.0436118295
 H          1.2351749063        1.2271287782        1.2906235762
 H          1.0203156490        2.2086941597       -0.1626624745
 H          0.6040215694        0.1688965942       -1.5015056794
 H          1.9440079083       -1.4648295900       -0.2001580210
 H          0.2726312718       -2.0264850547       -0.3539393668
 H          0.8239546189       -1.3199107034        1.1605907356
 H         -1.2766743646        1.4177806125       -0.3616290580
  13
  -16.6895118800000       3.357873189900924E-002 !
 C          0.9106316993        1.2649802290        0.0784825577
 C          0.4907700239       -0.1173102885       -0.4109525684
 C          1.3372427672       -1.2329390146        0.2081341619
 C         -0.9629287658       -0.3783334023       -0.1593374903
 O         -1.7743505133        0.4286584389        0.2239277555
 H          0.8183478220        1.3223327786        1.1605732698
 H          0.2681903269        2.0275869494       -0.3548351541
 H          1.9405415640        1.4696485500       -0.1981223376
 H          0.6053907991       -0.1669433890       -1.5018382787
 H          2.3830227966       -1.0828396039       -0.0429461848
 H          1.0255671914       -2.2058117614       -0.1624754865
 H          1.2374190496       -1.2235572774        1.2907762820
 H         -1.2732069377       -1.4203258352       -0.3653340918
  13
  -16.6895118700000       3.357837657245108E-002 !
 C          0.9106894117        1.2649674352        0.0783937451
 C          0.4907011377       -0.1173637711       -0.4108501300
 C          1.3373887849       -1.2329030693        0.2080661534
 C         -0.9629469073       -0.3784195541       -0.1589708434
 O         -1.7744759638        0.4287557145        0.2236661299
 H          1.9403318294        1.4699098224       -0.1989916435
 H          0.8192725280        1.3222014582        1.1605540383
 H          0.2677372569        2.0274835361       -0.3543160969
 H          0.6050187440       -0.1669993980       -1.5017757876
 H          1.2377977306       -1.2235694414        1.2907351988
 H          2.3831006083       -1.0827127887       -0.0432325247
 H          1.0257251305       -2.2057859194       -0.1625189837
 H         -1.2731105353       -1.4205929244       -0.3642242815
  13
  -16.6895118400000       3.357731061546283E-002 !
 C          0.9107083385        1.2648854606        0.0784335381
 C          0.4906884438       -0.1173631630       -0.4109028102
 C          1.3374022426       -1.2328239318        0.2080950194
 C         -0.9629727383       -0.3783882855       -0.1590771627
 O         -1.7744695164        0.4287367941        0.2237464512
 H          0.2678587539        2.0273572384       -0.3545102208
 H          1.9404378172        1.4697025719       -0.1987712315
 H          0.8190183800        1.3221124766        1.1605878192
 H          0.6051040201       -0.1669742804       -1.5018170879
 H          1.0257252900       -2.2056854537       -0.1625227147
 H          1.2377336391       -1.2234827158        1.2907592925
 H          2.3831332757       -1.0826328280       -0.0431553548
 H         -1.2731670529       -1.4205083726       -0.3645390424
  13
  -16.6895118400000       3.357731061546283E-002 !
 C          0.9106237955        1.2650171062        0.0783311117
 C          0.4907156955       -0.1173913728       -0.4107484451
 C          1.3374405183       -1.2329724803        0.2080102901
 C         -0.9629195717       -0.3784396313       -0.1588192828
 O         -1.7744969138        0.4288214171        0.2235441905
 H          1.9402203607        1.4699881015       -0.1991982868
 H          0.8193271451        1.3222518072        1.1604981340
 H          0.2675664501        2.0274744046       -0.3543369424
 H          0.6049335682       -0.1670327941       -1.5016792800
 H          2.3831228647       -1.0828097244       -0.0433924195
 H          1.0257232664       -2.2058896659       -0.1624545932
 H          1.2379611655       -1.2235402757        1.2906755937
 H         -1.2729827579       -1.4207470564       -0.3635523794
  13
  -16.6895118300000       3.357695530394453E-002 !
 C          0.9106634300        1.2649916900        0.0783633304
 C          0.4907076462       -0.1173782887       -0.4107848991
 C          1.3374380740       -1.2329385831        0.2080493669
 C         -0.9629505796       -0.3784559323       -0.1589128320
 O         -1.7744846575        0.4288099102        0.2236260925
 H          0.2675291998        2.0273606154       -0.3543551101
 H          1.9402495748        1.4700163632       -0.1992030502
 H          0.8193844588        1.3222809876        1.1605435800
 H          0.6049414209       -0.1669851086       -1.5017106330
 H          1.2378607155       -1.2236212250        1.2907244281
 H          2.3831554097       -1.0827215277       -0.0432619557
 H          1.0257622654       -2.2058212583       -0.1625527449
 H         -1.2731832835       -1.4206941248       -0.3642251801
  13
  -16.6895118100000       3.357624469218751E-002 !
 C          0.9106044498        1.2649359431        0.0783259540
 C          0.4906734202       -0.1174556223       -0.4107653794
 C          1.3375878618       -1.2329140662        0.2079962500
 C         -0.9629573230       -0.3784348259       -0.1586937286
 O         -1.7745590483        0.4288977760        0.2234638986
 H          1.9399574437        1.4700929851       -0.1998871864
 H          0.8200644763        1.3220598497        1.1605664758
 H          0.2671573564        2.0273450528       -0.3538254406
 H          0.6047904503       -0.1671147841       -1.5017139348
 H          1.0259237890       -2.2058420008       -0.1624405231
 H          1.2381031633       -1.2236022888        1.2906325547
 H          2.3832949507       -1.0827051554       -0.0433253843
 H         -1.2730049145       -1.4207715131       -0.3632377959
  13
  -16.6895118000000       3.357588939194871E-002 !
 C          0.9106542740        1.2649654694        0.0783370919
 C          0.4906857786       -0.1174013946       -0.4107715654
 C          1.3374794165       -1.2329163998        0.2080179751
 C         -0.9629306200       -0.3784509093       -0.1587691942
 O         -1.7745255104        0.4288324396        0.2235177914
 H          0.8196185054        1.3221500895        1.1605289303
 H          0.2674148063        2.0273539702       -0.3541459432
 H          1.9401586223        1.4700555995       -0.1994390381
 H          0.6048387601       -0.1670099973       -1.5017112422
 H          1.2379810328       -1.2235663749        1.2906867526
 H          2.3831680822       -1.0826914727       -0.0433626515
 H          1.0258034836       -2.2058206320       -0.1625065483
 H         -1.2729958595       -1.4207504912       -0.3635555847
  13
  -16.6895118000000       3.357588939194871E-002 !
 C          0.9106755986        1.2649638488        0.0782584079
 C          0.4906344941       -0.1174518000       -0.4106869082
 C          1.3376185234       -1.2328998526        0.2079639085
 C         -0.9629565193       -0.3785393035       -0.1584597736
 O         -1.7746172121        0.4289451966        0.2233009761
 H          0.2669026026        2.0272715141       -0.3536135391
 H          1.9399239875        1.4703119480       -0.2003226535
 H          0.8204974812        1.3219711895        1.1605452408
 H          0.6045512097       -0.1671003257       -1.5016622659
 H          2.3832625590       -1.0825353282       -0.0435135656
 H          1.0260595020       -2.2058304145       -0.1625959780
 H          1.2382557836       -1.2236499950        1.2906544225
 H         -1.2730020684       -1.4210316462       -0.3626694014
  13
  -16.6895117400000       3.357375766972164E-002 !
 C          0.9105580376        1.2649814278        0.0782883270
 C          0.4906856003       -0.1174700606       -0.4107054773
 C          1.3375970866       -1.2329667521        0.2079689405
 C         -0.9629210923       -0.3784659895       -0.1585648570
 O         -1.7745618525        0.4289396346        0.2233757239
 H          0.8198816425        1.3221375598        1.1605257394
 H          0.2671183489        2.0273514699       -0.3539830173
 H          1.9399569547        1.4701169663       -0.1998470429
 H          0.6047105176       -0.1671203340       -1.5016684847
 H          1.0259826432       -2.2059137894       -0.1625050231
 H          1.2382427817       -1.2236224449        1.2906533187
 H          2.3832430198       -1.0826758036       -0.0435316452
 H         -1.2729384195       -1.4208467061       -0.3629511084
