  13
        -16.68976569
 C          1.2046662950        1.2611533200        0.0528100434
 C          0.4330157754       -0.0001416561       -0.3458051135
 C          1.2103575463       -1.2580162581        0.0521357776
 C         -0.8823773019       -0.0024502564        0.3680985350
 O         -1.9705852217       -0.0007958955       -0.1544952094
 H          2.1673866166        1.2726105230       -0.4499391106
 H          1.3711251927        1.2799484598        1.1269426815
 H          0.6526420095        2.1537198689       -0.2310664593
 H          0.2489863942       -0.0000898070       -1.4238876541
 H          2.1731219824       -1.2649816381       -0.4506273292
 H          0.6623991867       -2.1529694180       -0.2320794910
 H          1.3769563269       -1.2765583018        1.1262483380
 H         -0.7958662482       -0.0055422148        1.4705696815
