  8
    -0.000000 !GC
 C          0.0000000000        0.0000000000        0.0000000000
 C          1.5127836551        0.0000000000        0.0000000000
 Cl         2.1473920776        1.6894957928        0.0000000000
 H         -0.4185425507        0.5132219200        0.8611783583
 H         -0.3160811333        0.5127517973       -0.9053166041
 H         -0.3843987368       -1.0161951728       -0.0161111722
 H          1.9194222783       -0.4718631002       -0.8921999295
 H          1.9191306388       -0.4684548820        0.8939472420
  8
    -0.000000 !GC
 C          0.0000000000        0.0000000000        0.0000000000
 C          1.5126248124        0.0000000000        0.0000000000
 Cl         2.1475979744        1.6894450055        0.0000000000
 H         -0.3855448465       -1.0156606713        0.0202950452
 H         -0.3162014575        0.5172060778        0.9027284829
 H         -0.4173556870        0.5097440357       -0.8635898463
 H          1.9184368644       -0.4709626077       -0.8928292115
 H          1.9190033928       -0.4695969627        0.8934545331
