  8
  -11.3813026200000       0.333342739464022      !
 C         -1.7201968095       -0.3783364386       -0.0000028469
 C         -0.6249236118        0.6651756304        0.0000065354
 Cl         1.0020096790       -0.1165531834        0.0000002769
 H         -2.6836882585        0.1246297273       -0.0000336697
 H         -1.6515934560       -1.0075841146       -0.8832097923
 H         -1.6517292871       -1.0077631472        0.8831072620
 H         -0.6563534518        1.2860921274        0.8929608750
 H         -0.6562358153        1.2862160218       -0.8928783655
  8
  -11.3813026100000       0.333339212067347      !
 C         -1.7201671354       -0.3783391919       -0.0000038098
 C         -0.6249238457        0.6652040538        0.0000055729
 Cl         1.0019970851       -0.1165596240       -0.0000006860
 H         -1.6516359127       -1.0077004538       -0.8831148267
 H         -1.6515765539       -1.0077091991        0.8831196330
 H         -2.6836797582        0.1245706137       -0.0000052903
 H         -0.6562584244        1.2861746821        0.8929287229
 H         -0.6563574599        1.2861756257       -0.8929251174
  8
  -11.3813025500000       0.333318048468632      !
 C         -1.7199297951       -0.3783711209       -0.0000051625
 C         -0.6249168590        0.6653957320        0.0000042220
 Cl         1.0018948477       -0.1166202957       -0.0000020391
 H         -1.6512937715       -1.0076397908        0.8831695719
 H         -2.6834473122        0.1245197133        0.0000631979
 H         -1.6514346923       -1.0077930561       -0.8831224879
 H         -0.6562574836        1.2863644299        0.8929470206
 H         -0.6563902171        1.2862904285       -0.8929743725
