  13
        -24.01531358
 C          0.8501620035       -1.8329138459        0.0000765287
 C          1.8678315712       -0.9009515859       -0.0000244469
 C          1.5673226937        0.4602943392        0.0000151381
 C          0.2377886566        0.8723660255        0.0001638667
 C         -0.7621127890       -0.0831976676        0.0000309177
 C         -0.4784702631       -1.4361486185       -0.0001014230
 Cl        -2.4235871140        0.4432859240       -0.0000269227
 O          2.5931438064        1.3405401928       -0.0000622858
 H          1.0888130916       -2.8841715058        0.0002292856
 H          2.9032415325       -1.1998335095       -0.0002910145
 H         -0.0177946271        1.9205279760        0.0002129253
 H         -1.2753183483       -2.1608628589        0.0000324057
 H          2.2706179180        2.2551085835       -0.0001614533
