  14
        -20.78037249
 C         -2.3600457788        0.2691204566       -0.5534311988
 C         -1.3742189915       -0.7559332784       -0.0049383343
 C         -0.3600479814       -0.1189339597        0.9409776409
 O          0.4593788325        0.8444591216        0.2482838110
 C          1.5650771265        0.4299762360       -0.3088140909
 O          2.0095462397       -0.6905814974       -0.3007475747
 H         -1.8305122846        1.0655454129       -1.0708612520
 H         -3.0441038717       -0.2035944520       -1.2524275227
 H         -2.9382516514        0.7086362464        0.2550950957
 H         -0.8346382450       -1.2349766063       -0.8249520210
 H         -1.9068904556       -1.5301952467        0.5471570133
 H         -0.8583195891        0.4514331329        1.7252676374
 H          0.2927909772       -0.8817010511        1.3745120833
 H          2.0684497988        1.2767995483       -0.8003527475
  14
        -20.78024098
 C         -2.6614145592       -0.2969159333       -0.5380478073
 C         -1.3464180271       -0.5103201318        0.2010430673
 C         -0.4449820182        0.7144840392        0.0728714999
 O          0.7570841029        0.5548306388        0.8516493758
 C          1.7859552203       -0.0255051491        0.2928473115
 O          1.8626703626       -0.4401344494       -0.8360338586
 H         -3.1951503372        0.5560654239       -0.1278379380
 H         -2.4791995737       -0.1165419776       -1.5942473576
 H         -3.2891042729       -1.1777386105       -0.4416650686
 H         -0.8236126535       -1.3766043132       -0.2102694075
 H         -1.5363069639       -0.6978917681        1.2591452299
 H         -0.1677422091        0.8783963594       -0.9724844919
 H         -0.9285753525        1.6022810115        0.4813605827
 H          2.6139872717       -0.0794139995        1.0159676267
  14
        -20.78004909
 C         -1.8057845821       -0.2844216997       -1.0316848388
 C         -1.7494292217       -0.0097835285        0.4666331947
 C         -0.3919720749        0.5343426636        0.9018081945
 O          0.6191363683       -0.4853801934        0.7679176385
 C          1.5481024280       -0.3436281232       -0.1377604967
 O          1.6982413895        0.5807594036       -0.8969000295
 H         -1.0723562104       -1.0378351466       -1.3135247807
 H         -2.7909545746       -0.6459881193       -1.3119566600
 H         -1.5941294121        0.6218092051       -1.5951285302
 H         -1.9508552281       -0.9284631662        1.0188280708
 H         -2.5040178500        0.7290314177        0.7354398837
 H         -0.0995689655        1.3966095894        0.2958233634
 H         -0.4017301170        0.8022307068        1.9597758627
 H          2.2167938719       -1.2181761553       -0.1131329377
  14
        -20.77967423
 C         -2.4984042945        0.6358007024        0.0404716986
 C         -1.7462586033       -0.6856970685       -0.0670057008
 C         -0.3084442040       -0.5564730308        0.4135512633
 O          0.3988881294        0.3150269467       -0.4935668532
 C          1.6926361812        0.4092244190       -0.3618751418
 O          2.3776084309       -0.1593082085        0.4519629823
 H         -1.9936976003        1.4019288958       -0.5421662323
 H         -3.5113077354        0.5240764627       -0.3352413183
 H         -2.5473698282        0.9636517217        1.0759083170
 H         -1.7382177077       -1.0218204732       -1.1042246997
 H         -2.2369240675       -1.4468766117        0.5392118419
 H         -0.2593224564       -0.1188047067        1.4152343717
 H          0.2047835936       -1.5227089424        0.4319285811
 H          2.0954251889        1.0979761272       -1.1198540369
  14
        -20.77941001
 C         -2.8457007443       -0.5317174393       -0.2591531142
 C         -1.7236108363        0.3763116544        0.2290391084
 C         -0.3625604336       -0.1952292399       -0.1393057286
 O          0.6551795947        0.7052121545        0.3438032194
 C          1.9022205800        0.3535345135        0.1839465294
 O          2.3032026177       -0.6594523917       -0.3324372133
 H         -2.7612546644       -1.5182209600        0.1891781323
 H         -3.8093494028       -0.1106832082        0.0108075417
 H         -2.8062289488       -0.6409303958       -1.3397837940
 H         -1.7753859846        0.4882219734        1.3124535453
 H         -1.8198222814        1.3666013140       -0.2170067486
 H         -0.2007032174       -1.1780199280        0.3146373240
 H         -0.2488713982       -0.2963463135       -1.2232149931
 H          2.5638232375        1.1284657610        0.5994093704
