  10
    -1.034200 !GC
 C          0.0000000000        0.0000000000        0.0000000000
 S          1.8368523428        0.0000000000        0.0000000000
 O          2.2442263730        1.4361190855        0.0000000000
 C          1.9859688024       -0.5630272608        1.7298771444
 H         -0.3243067653        0.3802312971       -0.9621391318
 H         -0.3679087683        0.6401751199        0.7930779852
 H         -0.3345710538       -1.0202882923        0.1319068153
 H          0.9980790758       -0.6849863857        2.1611091349
 H          2.5094079879        0.2454694400        2.2293616925
 H          2.5511696332       -1.4843133554        1.7791854208
  10
    -1.003721 !GC
 C          0.0000000000        0.0000000000        0.0000000000
 S          1.8368748003        0.0000000000        0.0000000000
 O          2.2453000900        1.4357594717        0.0000000000
 C          1.9844122676       -0.5617586544        1.7303435646
 H         -0.3288562222        0.3789651674       -0.9613296885
 H         -0.3643689532        0.6410991774        0.7939039684
 H         -0.3337063280       -1.0210176921        0.1290188697
 H          1.0184036506       -0.7363675480        2.1880286520
 H          2.5146695980        0.2098626813        2.2794370400
 H          2.5862875895       -1.4600779984        1.6763853928
  10
    -0.993625 !GC
 C          0.0000000000        0.0000000000        0.0000000000
 S          1.8253980121        0.0000000000        0.0000000000
 O          2.2339707208        1.4357866568        0.0000000000
 C          1.9768400216       -0.5648751834        1.7414330658
 H         -0.3267521485        1.0176491228       -0.1908623604
 H         -0.4100534389       -0.3440728772        0.9419325393
 H         -0.2730928261       -0.6397435918       -0.8296211547
 H          1.4572413609        0.1225986971        2.3978074013
 H          3.0317303204       -0.5781047376        1.9909772055
 H          1.5639106664       -1.5634469790        1.8041319443
  10
    -0.969319 !GC
 C          0.0000000000        0.0000000000        0.0000000000
 S          1.8253372002        0.0000000000        0.0000000000
 O          2.2340481160        1.4356962926        0.0000000000
 C          1.9736957216       -0.5642564723        1.7418827771
 H         -0.3263864398        1.0198849263       -0.1782879727
 H         -0.4105392107       -0.3557189774        0.9372336316
 H         -0.2732191271       -0.6286274139       -0.8378166571
 H          1.4537659037        0.1253720521        2.3965920200
 H          3.0293980330       -0.5816061291        1.9880131924
 H          1.5563534897       -1.5605133617        1.8092575206
  10
    -0.957129 !GC
 C          0.0000000000        0.0000000000        0.0000000000
 S          1.8254277872        0.0000000000        0.0000000000
 O          2.2338050822        1.4357878147        0.0000000000
 C          1.9755018820       -0.5636602350        1.7419714302
 H         -0.3712663388        1.0073239508       -0.1519671057
 H         -0.3062501609       -0.3818847303        0.9674608012
 H         -0.3338342196       -0.6438250940       -0.8046015093
 H          1.4493942752        0.1226255401        2.3944390149
 H          3.0301392017       -0.5761499004        1.9927094653
 H          1.5687907394       -1.5640593307        1.8065311856
  10
    -0.953735 !GC
 C          0.0000000000        0.0000000000        0.0000000000
 S          1.8253071728        0.0000000000        0.0000000000
 O          2.2335109951        1.4357789063        0.0000000000
 C          1.9768651432       -0.5643413518        1.7415244530
 H         -0.3313857952       -0.6321945360       -0.8170363727
 H         -0.3404025558        1.0159188204       -0.1754803331
 H         -0.3391689678       -0.3981368171        0.9460009706
 H          1.4573121367        0.1260385387        2.3952816925
 H          3.0321040263       -0.5838152430        1.9889978049
 H          1.5630392872       -1.5620667242        1.8071896669
  10
    -0.937959 !GC
 C          0.0000000000        0.0000000000        0.0000000000
 S          1.8252753791        0.0000000000        0.0000000000
 O          2.2347520504        1.4354641711        0.0000000000
 C          1.9744761413       -0.5649518277        1.7414345142
 H         -0.3328924470       -0.6454909011       -0.8039010011
 H         -0.3712877792        1.0068542914       -0.1539680582
 H         -0.3067468185       -0.3798440137        0.9676557019
 H          1.4565831342        0.1250886083        2.3969856625
 H          3.0303859783       -0.5849585368        1.9864271099
 H          1.5549779157       -1.5601289516        1.8084299320
  10
    -0.920212 !GC
 C          0.0000000000        0.0000000000        0.0000000000
 S          1.8253038925        0.0000000000        0.0000000000
 O          2.2337356359        1.4357658996        0.0000000000
 C          1.9731388692       -0.5646764837        1.7416637064
 H         -0.3331147572       -0.6531118586       -0.7975329496
 H         -0.3707376964        1.0056424042       -0.1637204833
 H         -0.3069881789       -0.3699899656        0.9715284120
 H          1.4565271864        0.1246433202        2.3985275127
 H          3.0279441949       -0.5833467824        1.9907837545
 H          1.5559391726       -1.5610812975        1.8034889185
  10
    -0.909847 !GC
 C          0.0000000000        0.0000000000        0.0000000000
 S          1.8368568848        0.0000000000        0.0000000000
 O          2.2450798425        1.4358065196        0.0000000000
 C          1.9827009073       -0.5609952380        1.7307398149
 H         -0.3286675333        0.3751069400       -0.9627845064
 H         -0.3643232656        0.6438972344        0.7915575051
 H         -0.3335444735       -1.0209555630        0.1325019406
 H          2.4875543285        0.1935354821        2.3234076502
 H          2.5549205094       -1.4807664252        1.7344280573
 H          0.9715822094       -0.7197496222        2.0889046280
  10
    -0.884685 !GC
 C          0.0000000000        0.0000000000        0.0000000000
 S          1.8369298085        0.0000000000        0.0000000000
 O          2.2446721782        1.4360963895        0.0000000000
 C          1.9871356703       -0.5631028283        1.7298626703
 H         -0.3245942938        0.3769656057       -0.9635107832
 H         -0.3674476142        0.6431371029        0.7910105451
 H         -0.3350469103       -1.0195949137        0.1358784979
 H          2.5170031011        0.1764275843        2.3162182913
 H          2.5332587877       -1.5016089116        1.6953559201
 H          0.9907136357       -0.7402643902        2.1154442967
  10
    -0.620055 !GC
 C          0.0000000000        0.0000000000        0.0000000000
 S          1.8368901925        0.0000000000        0.0000000000
 O          2.2450901985        1.4359060410        0.0000000000
 C          1.9866605168       -0.5636004960        1.7296092083
 H         -0.3310074808       -1.0221080149        0.1279248688
 H         -0.3280240178        0.3832172302       -0.9598951725
 H         -0.3682448817        0.6396466280        0.7925349899
 H          2.4954536155       -1.5178326045        1.8018372317
 H          0.9560568473       -0.6724630738        2.0582408856
 H          2.4715651603        0.2127616166        2.3034360886
  10
    -0.617578 !GC
 C          0.0000000000        0.0000000000        0.0000000000
 S          1.8254487307        0.0000000000        0.0000000000
 O          2.2342399761        1.4355599506        0.0000000000
 C          1.9747502474       -0.5651741230        1.7415453874
 H         -0.3670063059       -0.3410918741        0.9621517127
 H         -0.3775268340       -0.6179919007       -0.8034243918
 H         -0.2663391940        1.0411004796       -0.1477566355
 H          3.0117680896       -0.6471088441        2.0498347981
 H          1.5395568957       -1.5588777184        1.7589432325
 H          1.4069908623        0.1087866597        2.3657091228
  10
    -0.608375 !GC
 C          0.0000000000        0.0000000000        0.0000000000
 S          1.8253581437        0.0000000000        0.0000000000
 O          2.2341825518        1.4356868046        0.0000000000
 C          1.9724166440       -0.5636924031        1.7421474193
 H         -0.3661694137       -0.3339781803        0.9651647203
 H         -0.3771615554       -0.6246719369       -0.7987520000
 H         -0.2668880640        1.0399904286       -0.1557687612
 H          3.0267600835       -0.5748027450        1.9951293345
 H          1.5626725672       -1.5633123604        1.8015689192
 H          1.4473679594        0.1209815112        2.3973258719
  10
    -0.603515 !GC
 C          0.0000000000        0.0000000000        0.0000000000
 S          1.8254411608        0.0000000000        0.0000000000
 O          2.2338190359        1.4358184746        0.0000000000
 C          1.9743028942       -0.5641180309        1.7418945317
 H         -0.3664393495       -0.3278357133        0.9671059919
 H         -0.3771430903       -0.6297112152       -0.7947709854
 H         -0.2670081958        1.0388739561       -0.1627376193
 H          1.5213377431       -1.5451101957        1.8454675905
 H          1.3974216014        0.1399847255        2.3281828694
 H          3.0134413040       -0.5818216221        2.0394895392
  10
    -0.600767 !GC
 C          0.0000000000        0.0000000000        0.0000000000
 S          1.8369805271        0.0000000000        0.0000000000
 O          2.2449415800        1.4358698091        0.0000000000
 C          1.9850594108       -0.5633999407        1.7299738024
 H         -0.3648214794        0.6349157769        0.7984832146
 H         -0.3344861022       -1.0217688259        0.1208789367
 H         -0.3285441767        0.3864001012       -0.9579036052
 H          2.4986581126       -1.5152730225        1.8031847095
 H          0.9541352770       -0.6777765882        2.0559404019
 H          2.4644836427        0.2154213123        2.3053604987
  10
    -0.589792 !GC
 C          0.0000000000        0.0000000000        0.0000000000
 S          1.8369144163        0.0000000000        0.0000000000
 O          2.2448821277        1.4359498917        0.0000000000
 C          1.9848873018       -0.5612608391        1.7305970055
 H         -0.3224142347        0.6668995495        0.7952380337
 H         -0.4032353889       -0.9903014304        0.1710224452
 H         -0.3002217793        0.4241420146       -0.9475681141
 H          2.5741127915       -1.4668175952        1.7830402431
 H          0.9971847634       -0.7122501248        2.1524570492
 H          2.4817662435        0.2600482193        2.2370419118
  10
    -0.477874 !GC
 C          0.0000000000        0.0000000000        0.0000000000
 S          1.8252713418        0.0000000000        0.0000000000
 O          2.2281139003        1.4378101648        0.0000000000
 C          2.0118912211       -0.5664161097        1.7496509140
 H         -0.3321775778       -0.6302345633       -0.8186911784
 H         -0.3375971040        1.0172719175       -0.1740719918
 H         -0.3362989959       -0.4023785863        0.9456224089
 H          2.4519654433        0.2245443757        2.3433618126
 H          2.6320462547       -1.4533610165        1.8027719906
 H          1.0112389064       -0.8106574862        2.0826801857
  10
    -0.461626 !GC
 C          0.0000000000        0.0000000000        0.0000000000
 S          1.8252168382        0.0000000000        0.0000000000
 O          2.2282809978        1.4378568131        0.0000000000
 C          2.0110647566       -0.5683154598        1.7491029578
 H         -0.3291427677       -0.6436506227       -0.8071032333
 H         -0.3720588559        1.0070663287       -0.1521826581
 H         -0.3047049758       -0.3812057078        0.9680676988
 H          2.4939259267        0.2324088803        2.2979587736
 H          2.6451843814       -1.4464577832        1.7379204909
 H          1.0514116585       -0.8037095982        2.1893942869
  10
    -0.431841 !GC
 C          0.0000000000        0.0000000000        0.0000000000
 S          1.8252847153        0.0000000000        0.0000000000
 O          2.2281277310        1.4378408274        0.0000000000
 C          2.0106862388       -0.5668833003        1.7495963440
 H         -0.3272558084        1.0187929494       -0.1848579634
 H         -0.4077869465       -0.3492253794        0.9411095951
 H         -0.2696542230       -0.6339617990       -0.8356292172
 H          1.0336467813       -0.7970936283        2.1606062898
 H          2.4451313199        0.2341072922        2.3333426578
 H          2.6526846703       -1.4375051063        1.7444405011
  10
    -0.377318 !GC
 C          0.0000000000        0.0000000000        0.0000000000
 S          1.8369036922        0.0000000000        0.0000000000
 O          2.2379774526        1.4384325360        0.0000000000
 C          2.0195788237       -0.5639174812        1.7387094128
 H         -0.3590264997       -1.0092652563        0.1776613638
 H         -0.3716046427        0.3859404488       -0.9393604632
 H         -0.2916726438        0.6218598037        0.8374162671
 H          1.6133084871       -1.5648452779        1.8064683372
 H          1.5020043913        0.1209620909        2.4002828260
 H          3.0796411496       -0.5714455473        1.9697522590
  10
    -0.377162 !GC
 C          0.0000000000        0.0000000000        0.0000000000
 S          1.8368671042        0.0000000000        0.0000000000
 O          2.2390977940        1.4379215855        0.0000000000
 C          2.0186870930       -0.5654400275        1.7381942620
 H         -0.3653252184        0.6302015072        0.8022305907
 H         -0.3321549487       -1.0232038404        0.1157579918
 H         -0.3251731485        0.3944700865       -0.9561675375
 H          3.0626807289       -0.6396769193        2.0260762564
 H          1.5861677052       -1.5606440395        1.7599188367
 H          1.4583776675        0.1055358114        2.3721585441
  10
    -0.370877 !GC
 C          0.0000000000        0.0000000000        0.0000000000
 S          1.8367785359        0.0000000000        0.0000000000
 O          2.2379623815        1.4383567792        0.0000000000
 C          2.0200786763       -0.5645572897        1.7383261320
 H         -0.3183501913        0.6622959705        0.8006716720
 H         -0.4044545747       -0.9908409863        0.1657140953
 H         -0.2977000831        0.4292865165       -0.9463710672
 H          3.0803057948       -0.5717356944        1.9675826954
 H          1.6156345972       -1.5661375469        1.8053662296
 H          1.5026896403        0.1193891098        2.4013003331
  10
    -0.368514 !GC
 C          0.0000000000        0.0000000000        0.0000000000
 S          1.8369246357        0.0000000000        0.0000000000
 O          2.2388993973        1.4380638931        0.0000000000
 C          2.0208857825       -0.5656945763        1.7380104041
 H         -0.3592449014       -1.0111405363        0.1677878457
 H         -0.3714704315        0.3947493915       -0.9356835455
 H         -0.2917136176        0.6139632361        0.8427945776
 H          1.5997377198       -1.5519967664        1.8885652447
 H          1.4980525499        0.1522257013        2.3641969076
 H          3.0778691058       -0.5158482869        1.9580935086
  10
    -0.361229 !GC
 C          0.0000000000        0.0000000000        0.0000000000
 S          1.8368011195        0.0000000000        0.0000000000
 O          2.2390383093        1.4380016478        0.0000000000
 C          2.0185135046       -0.5632923534        1.7388216575
 H         -0.3229181686        0.6622174319        0.7991899406
 H         -0.4009635118       -0.9921400682        0.1661312464
 H         -0.2968240568        0.4321401476       -0.9454301737
 H          3.0627092692       -0.5455333404        2.0258877783
 H          1.6178775320       -1.5607360639        1.8682909379
 H          1.4455944786        0.1596046608        2.3095116177
  10
    -0.357706 !GC
 C          0.0000000000        0.0000000000        0.0000000000
 S          1.8367954421        0.0000000000        0.0000000000
 O          2.2386929149        1.4381563658        0.0000000000
 C          2.0220501729       -0.5656841178        1.7377558422
 H         -0.2848034070       -1.0386204040        0.1330009291
 H         -0.3987159094        0.3450233599       -0.9484271966
 H         -0.3377317451        0.5955767251        0.8348597339
 H          1.5910355284       -1.5476456044        1.8905652482
 H          1.5087510591        0.1582613257        2.3648435322
 H          3.0807846375       -0.5262928187        1.9535319410
  10
    -0.188812 !GC
 C          0.0000000000        0.0000000000        0.0000000000
 S          1.8367910263        0.0000000000        0.0000000000
 O          2.2389720591        1.4380903256        0.0000000000
 C          2.0211910744       -0.5656527667        1.7378453466
 H         -0.2842294814       -1.0379434490        0.1414085528
 H         -0.3981557058        0.3370193862       -0.9516555346
 H         -0.3382621912        0.6027436338        0.8296976245
 H          3.0655981731       -0.6368345786        2.0246284796
 H          1.5924621802       -1.5622767275        1.7597339051
 H          1.4596443034        0.1033513163        2.3729332469
  10
    -0.180245 !GC
 C          0.0000000000        0.0000000000        0.0000000000
 S          1.8369610976        0.0000000000        0.0000000000
 O          2.2393328645        1.4379429042        0.0000000000
 C          2.0223845818       -0.5656182650        1.7378998422
 H         -0.3591066859       -1.0109816817        0.1684508381
 H         -0.3719538050        0.3943429802       -0.9354250645
 H         -0.2914147375        0.6140254590        0.8430725678
 H          3.0672200683       -0.6349539367        2.0237878446
 H          1.5954855403       -1.5633508084        1.7598251212
 H          1.4598004430        0.1023969443        2.3736719385
  10
    -0.177892 !GC
 C          0.0000000000        0.0000000000        0.0000000000
 S          1.8368595343        0.0000000000        0.0000000000
 O          2.2386755055        1.4381782222        0.0000000000
 C          2.0182399621       -0.5643883886        1.7385510005
 H         -0.3647585084        0.6414690797        0.7936835402
 H         -0.3317540458       -1.0218059108        0.1304906354
 H         -0.3258413527        0.3806473231       -0.9617237919
 H          1.5724261777       -1.5488925918        1.8453251297
 H          1.4487198352        0.1393887395        2.3330783933
 H          3.0624395467       -0.5771375634        2.0179810382
  10
    -0.174565 !GC
 C          0.0000000000        0.0000000000        0.0000000000
 S          1.8368991503        0.0000000000        0.0000000000
 O          2.2382564834        1.4383665367        0.0000000000
 C          2.0187194337       -0.5638856117        1.7387976198
 H         -0.3584841659       -1.0082661966        0.1858581094
 H         -0.3710382650        0.3780195555       -0.9429196830
 H         -0.2922042779        0.6290619894        0.8320465930
 H          3.0779635362       -0.5639743122        1.9716626119
 H          1.6207586002       -1.5682209978        1.8044011303
 H          1.4946473775        0.1157065726        2.4005160839
  10
    -0.171436 !GC
 C          0.0000000000        0.0000000000        0.0000000000
 S          1.8368560016        0.0000000000        0.0000000000
 O          2.2384083941        1.4383356720        0.0000000000
 C          2.0212523849       -0.5646268779        1.7382921138
 H         -0.3186377540        0.6650857881        0.7984640068
 H         -0.4040033756       -0.9905196967        0.1692614800
 H         -0.2981813076        0.4255145978       -0.9479047937
 H          1.6211478320       -1.5681090773        1.8042321856
 H          1.4988944854        0.1156160734        2.4006597722
 H          3.0812249189       -0.5664024752        1.9700961139
  10
    -0.166548 !GC
 C          0.0000000000        0.0000000000        0.0000000000
 S          1.8368028859        0.0000000000        0.0000000000
 O          2.2388136996        1.4381168274        0.0000000000
 C          2.0219704834       -0.5646664234        1.7381007500
 H         -0.3300163893       -1.0274961465        0.1007339950
 H         -0.2938032865        0.3766024635       -0.9754694761
 H         -0.3968960744        0.6034202029        0.8035779335
 H          3.0683704864       -0.5742261886        2.0115609067
 H          1.5754281108       -1.5485639239        1.8459074071
 H          1.4527007308        0.1351824006        2.3375504808
  10
    -0.144043 !GC
 C          0.0000000000        0.0000000000        0.0000000000
 S          1.8252864816        0.0000000000        0.0000000000
 O          2.2279029630        1.4379560289        0.0000000000
 C          2.0141645387       -0.5682634248        1.7488661963
 H         -0.3343215661       -0.4149932958        0.9426124549
 H         -0.3008337708       -0.6575104965       -0.8112308036
 H         -0.3707899259        1.0053301995       -0.1530136606
 H          1.0362082718       -0.7700422036        2.1685947984
 H          2.4901855460        0.2377274522        2.2982103292
 H          2.6585283739       -1.4348054905        1.7766688114
  10
    -0.139176 !GC
 C          0.0000000000        0.0000000000        0.0000000000
 S          1.8252998552        0.0000000000        0.0000000000
 O          2.2279167880        1.4379866916        0.0000000000
 C          2.0129596347       -0.5687309764        1.7488125547
 H         -0.3294176193       -0.6486370574       -0.8029162590
 H         -0.3720404280        1.0060711817       -0.1585559140
 H         -0.3048231846       -0.3746809756        0.9705553938
 H          2.5910929188       -1.4871735641        1.7652150601
 H          1.0078958590       -0.7974407321        2.0842715951
 H          2.4577200327        0.1959948753        2.3673289789
  10
    -0.134081 !GC
 C          0.0000000000        0.0000000000        0.0000000000
 S          1.8252016983        0.0000000000        0.0000000000
 O          2.2284918946        1.4377108786        0.0000000000
 C          2.0087912337       -0.5664667391        1.7498841926
 H         -0.3269798986        1.0200796782       -0.1784543575
 H         -0.4078057546       -0.3551824663        0.9388888895
 H         -0.2695344535       -0.6283683053       -0.8399040233
 H          2.6619882602       -1.4309719069        1.7465240613
 H          1.0488421885       -0.8240467966        2.1760459485
 H          2.4710082371        0.2418380491        2.3050430490
  10
    -0.034212 !GC
 C          0.0000000000        0.0000000000        0.0000000000
 S          1.8254457027        0.0000000000        0.0000000000
 O          2.2335404408        1.4358858585        0.0000000000
 C          1.9751634980       -0.5641547749        1.7418209698
 H         -0.3669771306       -0.3354473607        0.9639899527
 H         -0.3777077749       -0.6226998992       -0.7998675235
 H         -0.2664764887        1.0402030457       -0.1537792336
 H          1.4606529542        0.1270454340        2.3983624141
 H          3.0305558330       -0.5836382951        1.9894333921
 H          1.5567345985       -1.5602932041        1.8058894048
  10
    -0.033883 !GC
 C          0.0000000000        0.0000000000        0.0000000000
 S          1.8369520137        0.0000000000        0.0000000000
 O          2.2443860158        1.4361374815        0.0000000000
 C          1.9858856547       -0.5629106474        1.7300570417
 H         -0.3245048044        0.3826993791       -0.9610485641
 H         -0.3679290279        0.6380242296        0.7947174407
 H         -0.3352767501       -1.0201847639        0.1292437771
 H          2.4963575868       -1.5164382575        1.8028049389
 H          0.9550480968       -0.6741072428        2.0572028935
 H          2.4684497965        0.2144068060        2.3049081171
  10
    -0.032634 !GC
 C          0.0000000000        0.0000000000        0.0000000000
 S          1.8368239555        0.0000000000        0.0000000000
 O          2.2392496943        1.4378907236        0.0000000000
 C          2.0212201301       -0.5661807844        1.7376880743
 H         -0.3256771286        0.3958231699       -0.9556166667
 H         -0.3655296530        0.6279410484        0.8037936339
 H         -0.3310258383       -1.0238524225        0.1133083361
 H          1.5933240982       -1.5497401346        1.8893643036
 H          1.5050676772        0.1558069778        2.3647908236
 H          3.0796093709       -0.5235291832        1.9543867958
  10
    -0.031284 !GC
 C          0.0000000000        0.0000000000        0.0000000000
 S          1.8368782068        0.0000000000        0.0000000000
 O          2.2381219590        1.4383754342        0.0000000000
 C          2.0199967920       -0.5644408779        1.7385094501
 H         -0.3185493978        0.6601417410        0.8023160108
 H         -0.4044721936       -0.9912056628        0.1630734162
 H         -0.2984203501        0.4315309047       -0.9448932022
 H          1.5035137935        0.1209723241        2.4006826390
 H          3.0799313539       -0.5709263190        1.9678382078
 H          1.6151458517       -1.5660480766        1.8076095077
  10
    -0.030910 !GC
 C          0.0000000000        0.0000000000        0.0000000000
 S          1.8368195397        0.0000000000        0.0000000000
 O          2.2395287915        1.4378245791        0.0000000000
 C          2.0203609951       -0.5661493304        1.7377772063
 H         -0.3251210591        0.3882944025       -0.9591887001
 H         -0.3649599007        0.6349820299        0.7986466617
 H         -0.3315572994       -1.0228399346        0.1221222515
 H          3.0645448363       -0.6340355323        2.0263710329
 H          1.5944536478       -1.5640632683        1.7588249768
 H          1.4557107947        0.1011429332        2.3718629715
  10
    -0.029732 !GC
 C          0.0000000000        0.0000000000        0.0000000000
 S          1.8367332424        0.0000000000        0.0000000000
 O          2.2391917736        1.4380178002        0.0000000000
 C          2.0188894581       -0.5647167024        1.7383316733
 H         -0.3248215446        0.3887684687       -0.9590026871
 H         -0.3651586568        0.6346236967        0.7990360418
 H         -0.3315760098       -1.0229741917        0.1211825373
 H          1.6151671013       -1.5671388064        1.8035351663
 H          1.5015144320        0.1219830343        2.3980372920
 H          3.0780628750       -0.5753359221        1.9719389200
  10
    -0.029201 !GC
 C          0.0000000000        0.0000000000        0.0000000000
 S          1.8367877460        0.0000000000        0.0000000000
 O          2.2382703930        1.4384129074        0.0000000000
 C          2.0216029426       -0.5646338319        1.7381132446
 H         -0.2842112255       -1.0369672622        0.1474209018
 H         -0.3983382791        0.3314955102       -0.9536619590
 H         -0.3383970597        0.6075174254        0.8261662108
 H          1.5105225283        0.1234443692        2.4012909295
 H          3.0820582243       -0.5765006691        1.9644804652
 H          1.6118432424       -1.5639692028        1.8087494651
  10
    -0.028804 !GC
 C          0.0000000000        0.0000000000        0.0000000000
 S          1.8368385907        0.0000000000        0.0000000000
 O          2.2385409882        1.4381871560        0.0000000000
 C          2.0195172580       -0.5649436384        1.7382629678
 H         -0.3250077887        0.3883797286       -0.9588066004
 H         -0.3656224728        0.6345286580        0.7986770679
 H         -0.3319234937       -1.0226221109        0.1213900480
 H          3.0637112470       -0.6424781924        2.0243397904
 H          1.5841842368       -1.5588381737        1.7608326165
 H          1.4623204639        0.1077290741        2.3732223366
  10
    -0.028729 !GC
 C          0.0000000000        0.0000000000        0.0000000000
 S          1.8368640762        0.0000000000        0.0000000000
 O          2.2383965074        1.4382443120        0.0000000000
 C          2.0190993125       -0.5644202925        1.7384629803
 H         -0.3652961945        0.6347702908        0.7984463878
 H         -0.3323327148       -1.0225884535        0.1217208278
 H         -0.3253087726        0.3889144576       -0.9584057975
 H          1.5097392774        0.1251910868        2.4015319277
 H          3.0797382616       -0.5798229237        1.9647038749
 H          1.6065815431       -1.5625632070        1.8086812431
  10
    -0.027960 !GC
 C          0.0000000000        0.0000000000        0.0000000000
 S          1.8368119698        0.0000000000        0.0000000000
 O          2.2391065759        1.4380813541        0.0000000000
 C          2.0199138790       -0.5650980787        1.7381347676
 H         -0.3245408735        0.3750802703       -0.9647704541
 H         -0.3645702406        0.6466328568        0.7897421103
 H         -0.3322241055       -1.0209430316        0.1368371139
 H          1.5801162515       -1.5524536487        1.8430686000
 H          1.4455431600        0.1338286564        2.3334622960
 H          3.0640180234       -0.5722316749        2.0183130247
  10
    -0.021971 !GC
 C          0.0000000000        0.0000000000        0.0000000000
 S          1.8369774992        0.0000000000        0.0000000000
 O          2.2442418172        1.4361953146        0.0000000000
 C          1.9854700281       -0.5623872931        1.7302486468
 H         -0.3647925114        0.6394620582        0.7946721595
 H         -0.3346640323       -1.0211232081        0.1268336697
 H         -0.3286796475        0.3808346274       -0.9600945995
 H          2.5205880407        0.1741960172        2.3156258104
 H          2.5256388623       -1.5044728978        1.6951560424
 H          0.9884904112       -0.7336350377        2.1169189436
  10
    -0.017851 !GC
 C          0.0000000000        0.0000000000        0.0000000000
 S          1.8368369506        0.0000000000        0.0000000000
 O          2.2444363448        1.4359726459        0.0000000000
 C          1.9837204782       -0.5611848384        1.7306101273
 H         -0.3221263991        0.6641212204        0.7974529082
 H         -0.4036866831       -0.9906293683        0.1674754014
 H         -0.2997409893        0.4279128647       -0.9460406936
 H          2.4887733183        0.1932495794        2.3230630623
 H          2.5562936458       -1.4806299276        1.7339667909
 H          0.9730213646       -0.7201017419        2.0896180043
  10
    -0.017455 !GC
 C          0.0000000000        0.0000000000        0.0000000000
 S          1.8253404806        0.0000000000        0.0000000000
 O          2.2341683770        1.4356431772        0.0000000000
 C          1.9746401570       -0.5646090657        1.7415803128
 H         -0.3329779560       -0.6536085773       -0.7970596263
 H         -0.3712232618        1.0052076460       -0.1639282019
 H         -0.3066925305       -0.3701903812        0.9717363166
 H          1.5148338250       -1.5426437064        1.8461918626
 H          1.4042491090        0.1438481582        2.3290260816
 H          3.0149610851       -0.5894370885        2.0359122347
  10
    -0.017157 !GC
 C          0.0000000000        0.0000000000        0.0000000000
 S          1.8254323292        0.0000000000        0.0000000000
 O          2.2335264930        1.4358551985        0.0000000000
 C          1.9763624613       -0.5636968209        1.7418973389
 H         -0.3718013887        1.0080414409       -0.1437932087
 H         -0.3068373014       -0.3900303518        0.9639006906
 H         -0.3333021632       -0.6368714605       -0.8101164970
 H          3.0166986951       -0.5874417425        2.0350059393
 H          1.5193353789       -1.5429360300        1.8456478866
 H          1.4048637199        0.1428153611        2.3313092953
  10
    -0.015051 !GC
 C          0.0000000000        0.0000000000        0.0000000000
 S          1.8254068437        0.0000000000        0.0000000000
 O          2.2336706454        1.4357972674        0.0000000000
 C          1.9767808769       -0.5642235840        1.7417047623
 H         -0.3315832825       -0.6299988484       -0.8185981496
 H         -0.3404248605        1.0163105982       -0.1727729239
 H         -0.3398719600       -0.4003796608        0.9445717979
 H          1.5424061803       -1.5452018045        1.8876094542
 H          1.4545874531        0.1598256337        2.3606465102
 H          3.0299062298       -0.5249181518        1.9810669215
  10
    -0.014546 !GC
 C          0.0000000000        0.0000000000        0.0000000000
 S          1.8254202173        0.0000000000        0.0000000000
 O          2.2336845968        1.4358279273        0.0000000000
 C          1.9755819199       -0.5646816002        1.7416285343
 H         -0.3266623109        1.0185994048       -0.1846904001
 H         -0.4105203754       -0.3497723703        0.9394578208
 H         -0.2733386568       -0.6342069820       -0.8335395632
 H          3.0128099855       -0.6499048784        2.0481239260
 H          1.5375732127       -1.5570700794        1.7598183493
 H          1.4109220416        0.1109587043        2.3668388457
  10
    -0.014076 !GC
 C          0.0000000000        0.0000000000        0.0000000000
 S          1.8369651349        0.0000000000        0.0000000000
 O          2.2451514766        1.4357232776        0.0000000000
 C          1.9828108643       -0.5615570415        1.7307059720
 H         -0.3627731042       -1.0084001102        0.1749298543
 H         -0.3706550673        0.3897439247       -0.9377767588
 H         -0.2935867468        0.6174121715        0.8396736093
 H          1.0162237112       -0.7412497130        2.1858055418
 H          2.5075911511        0.2126293142        2.2815815547
 H          2.5895557301       -1.4568568551        1.6780304619
  10
    -0.010958 !GC
 C          0.0000000000        0.0000000000        0.0000000000
 S          1.8368722770        0.0000000000        0.0000000000
 O          2.2448699323        1.4359530572        0.0000000000
 C          1.9849492812       -0.5628382110        1.7300082466
 H         -0.3308189935       -1.0215369921        0.1319954512
 H         -0.3279805209        0.3797570605       -0.9612019298
 H         -0.3680955698        0.6425526788        0.7906783400
 H          0.9967037015       -0.6846309953        2.1607019829
 H          2.5085636903        0.2455989079        2.2296034381
 H          2.5501629821       -1.4842148076        1.7794213695
  10
    -0.001518 !GC
 C          0.0000000000        0.0000000000        0.0000000000
 S          1.8369366215        0.0000000000        0.0000000000
 O          2.2445959881        1.4359910323        0.0000000000
 C          1.9836371710       -0.5610679490        1.7307896876
 H         -0.3223252004        0.6619746494        0.7991016757
 H         -0.4037043440       -0.9909987536        0.1648351540
 H         -0.3004602155        0.4301562344       -0.9445648717
 H          1.0171365409       -0.7371559065        2.1873511441
 H          2.5113658367        0.2120729591        2.2802011191
 H          2.5875949041       -1.4583030337        1.6784013359
  10
    -0.001043 !GC
 C          0.0000000000        0.0000000000        0.0000000000
 S          1.8369729572        0.0000000000        0.0000000000
 O          2.2445204655        1.4361280945        0.0000000000
 C          1.9846148220       -0.5623507946        1.7303215911
 H         -0.3642547280        0.6461323375        0.7898697262
 H         -0.3340860887       -1.0202981384        0.1355924479
 H         -0.3292120799        0.3725525879       -0.9633413313
 H          0.9966239188       -0.6912919072        2.1587394445
 H          2.5011528352        0.2495461773        2.2316061898
 H          2.5559996011       -1.4793545808        1.7816590256
  10
    -0.001015 !GC
 C          0.0000000000        0.0000000000        0.0000000000
 S          1.8253205464        0.0000000000        0.0000000000
 O          2.2335249456        1.4358095662        0.0000000000
 C          1.9756662722       -0.5647993663        1.7414483094
 H         -0.3264641804        1.0182168909       -0.1873634672
 H         -0.4105031702       -0.3473042054        0.9404503335
 H         -0.2726072336       -0.6365762535       -0.8322325523
 H          1.5160805028       -1.5428173836        1.8462336985
 H          1.4052939254        0.1432307972        2.3292591118
 H          3.0159871397       -0.5897190442        2.0354471051
  10
    -0.000450 !GC
 C          0.0000000000        0.0000000000        0.0000000000
 S          1.8253846385        0.0000000000        0.0000000000
 O          2.2339567633        1.4357559970        0.0000000000
 C          1.9780389166       -0.5644169461        1.7415085388
 H         -0.3316740171       -0.6350361918       -0.8149304611
 H         -0.3399335081        1.0155341145       -0.1791127126
 H         -0.3396436303       -0.3943630841        0.9473933328
 H          3.0182412231       -0.5817959590        2.0353761160
 H          1.5274688461       -1.5465512537        1.8446692193
 H          1.4020380945        0.1384411078        2.3309986327
  10
    -0.000295 !GC
 C          0.0000000000        0.0000000000        0.0000000000
 S          1.8254353572        0.0000000000        0.0000000000
 O          2.2342260122        1.4355292911        0.0000000000
 C          1.9759492383       -0.5647162857        1.7416222866
 H         -0.3718312483        1.0089952049       -0.1379484095
 H         -0.3066612511       -0.3956036504        0.9615395145
 H         -0.3331669540       -0.6321901365       -0.8138171930
 H          1.5447057397       -1.5472926239        1.8864585542
 H          1.4509042457        0.1573865422        2.3605269108
 H          3.0287100078       -0.5221595357        1.9818960874
  10
    -0.000022 !GC
 C          0.0000000000        0.0000000000        0.0000000000
 S          1.8253583961        0.0000000000        0.0000000000
 O          2.2343886059        1.4355960440        0.0000000000
 C          1.9763621476       -0.5653765352        1.7411793141
 H         -0.3331667299       -0.6504561036       -0.7997020138
 H         -0.3712693615        1.0058478309       -0.1603399136
 H         -0.3068648895       -0.3733220467        0.9701340307
 H          3.0134816909       -0.6525284710        2.0467757568
 H          1.5360464723       -1.5567223589        1.7599303595
 H          1.4138539912        0.1115719970        2.3665972663
  10
    -0.000006 !GC
 C          0.0000000000        0.0000000000        0.0000000000
 S          1.8368356889        0.0000000000        0.0000000000
 O          2.2444370997        1.4360755505        0.0000000000
 C          1.9834572297       -0.5629051837        1.7300907194
 H         -0.3309555696       -1.0216754979        0.1313239401
 H         -0.3274785477        0.3801543111       -0.9614480280
 H         -0.3683745262        0.6424604799        0.7903889148
 H          2.5161209568        0.1737586867        2.3175959291
 H          2.5243949587       -1.5042911033        1.6955057700
 H          0.9860122972       -0.7353819170        2.1139972505
