  10
  -14.6344298900000       0.108257344637515      !
 C         -1.3631925946       -0.8758612355        0.2335817658
 S          0.0001623271        0.1577241197       -0.4348444298
 O          0.0016306975        1.4033339505        0.3887423882
 C          1.3612110811       -0.8788930576        0.2335599750
 H         -1.2607055934       -0.9645437935        1.3088313467
 H         -1.3151839830       -1.8420857249       -0.2515496293
 H         -2.2965014323       -0.3796243517       -0.0092048250
 H          1.2600906963       -0.9644912245        1.3092191156
 H          2.2958431711       -0.3863974887       -0.0119641811
 H          1.3090204561       -1.8461771674       -0.2491458709
  10
  -14.6344298900000       0.108257344637515      !
 C         -1.3631312441       -0.8759410432        0.2335540644
 S          0.0001667669        0.1577455237       -0.4347873306
 O          0.0016146191        1.4034308069        0.3886951071
 C          1.3611484740       -0.8789886703        0.2335270574
 H         -1.3142336805       -1.8427871052       -0.2504068853
 H         -2.2964499964       -0.3802771421       -0.0105905777
 H         -1.2613577986       -0.9632315598        1.3089935338
 H          1.3096691329       -1.8458930622       -0.2500637118
 H          1.2594688139       -0.9655772916        1.3090490687
 H          2.2955957957       -0.3856816041       -0.0111390700
  10
  -14.6344298800000       0.108256199070049      !
 C         -1.3632326795       -0.8758677116        0.2335470913
 S          0.0001644049        0.1577037308       -0.4347850104
 O          0.0016180456        1.4033811555        0.3887068457
 C          1.3612501179       -0.8789122259        0.2335217286
 H         -1.2611531482       -0.9638370521        1.3089012795
 H         -1.3147058616       -1.8424313185       -0.2509858209
 H         -2.2965358027       -0.3798625899       -0.0100061133
 H          1.3094041815       -1.8460012804       -0.2496197435
 H          1.2599731064       -0.9650382558        1.3091104680
 H          2.2957280573       -0.3859443584       -0.0116712642
  10
  -14.6344298700000       0.108255053514501      !
 C         -1.3632455384       -0.8757987823        0.2335691825
 S          0.0001820525        0.1576875862       -0.4348076327
 O          0.0015713525        1.4033314488        0.3887300526
 C          1.3612720936       -0.8788958527        0.2335279584
 H         -1.3147201163       -1.8422437126       -0.2511838634
 H         -2.2965396809       -0.3797000110       -0.0098525971
 H         -1.2611049040       -0.9639872235        1.3089076415
 H          1.2599803341       -0.9649748186        1.3091140124
 H          2.2957479611       -0.3859187216       -0.0116762869
 H          1.3094180690       -1.8460042363       -0.2495662830
  10
  -14.6344298500000       0.108252762439975      !
 C         -1.3632029235       -0.8759025276        0.2335196202
 S          0.0001792244        0.1577177696       -0.4347303676
 O          0.0015641279        1.4034682423        0.3886586719
 C          1.3612338556       -0.8790106236        0.2334784343
 H         -2.2965668888       -0.3810219278       -0.0121058502
 H         -1.2622857841       -0.9617216957        1.3091691453
 H         -1.3133189780       -1.8433419687       -0.2491659066
 H          1.3107583369       -1.8453743829       -0.2512675811
 H          1.2587303624       -0.9670139486        1.3087794219
 H          2.2956171057       -0.3848825045       -0.0098108007
  10
  -14.6344298500000       0.108252762439975      !
 C         -1.3630152524       -0.8759176408        0.2336400719
 S          0.0001784973        0.1577893889       -0.4349031399
 O          0.0015762811        1.4033447362        0.3887701579
 C          1.3610430363       -0.8790104269        0.2336014678
 H         -2.2962788378       -0.3796306925       -0.0093964559
 H         -1.2606362200       -0.9644332926        1.3089262716
 H         -1.3148692737       -1.8422383755       -0.2513538434
 H          1.2599301133       -0.9647275458        1.3092424031
 H          2.2954952269       -0.3861754599       -0.0118089566
 H          1.3091608781       -1.8462912263       -0.2491857827
  10
  -14.6344298100000       0.108248180436385      !
 C         -1.3628497857       -0.8764055988        0.2334980687
 S          0.0001226074        0.1579493224       -0.4347297025
 O          0.0017327062        1.4038003574        0.3885718252
 C          1.3608381139       -0.8793168474        0.2335105204
 H         -2.2963868730       -0.3806112343       -0.0097838931
 H         -1.2604965043       -0.9643144760        1.3087407222
 H         -1.3148582378       -1.8432390257       -0.2504149368
 H          2.2953503470       -0.3860075543       -0.0112206979
 H          1.3095207434       -1.8466457106       -0.2495170322
 H          1.2594375585       -0.9655327579        1.3090261254
  10
  -14.6344298000000       0.108247034965690      !
 C         -1.3630965578       -0.8759575945        0.2335454816
 S          0.0001808235        0.1577608463       -0.4347613898
 O          0.0015627350        1.4034847997        0.3886694735
 C          1.3611256887       -0.8790657014        0.2335032304
 H         -1.2623327956       -0.9614622031        1.3092266854
 H         -1.3130150531       -1.8435223657       -0.2488605250
 H         -2.2965046077       -0.3812986377       -0.0123362427
 H          2.2954920786       -0.3848196493       -0.0095500843
 H          1.3107864099       -1.8453481029       -0.2514464129
 H          1.2585008250       -0.9672261606        1.3087767925
  10
  -14.6344297800000       0.108244744060866      !
 C         -1.3641552623       -0.8753885979        0.2333491734
 S          0.0002420667        0.1573772320       -0.4344934793
 O          0.0013837688        1.4033483837        0.3885723989
 C          1.3622194895       -0.8787010479        0.2332484503
 H         -1.3153712599       -1.8425337982       -0.2502069393
 H         -2.2972377206       -0.3795119988       -0.0116972980
 H         -1.2638964591       -0.9623023530        1.3088765626
 H          2.2963235199       -0.3851691862       -0.0118153656
 H          1.3117195619       -1.8459485356       -0.2496867916
 H          1.2618635178       -0.9649677415        1.3087333510
  10
  -14.6324173300000       1.286911948586052E-002 !
 C         -1.3822967984       -0.8727752835        0.2330250514
 S          0.0028869070        0.1532599749       -0.4339668160
 O          0.0027850645        1.3998367843        0.3891658785
 C          1.3747634718       -0.8708096382        0.2316376315
 H         -2.0258874784       -1.1295718740       -0.6000278783
 H         -1.9214593002       -0.2577438000        0.9446480956
 H         -1.0076075611       -1.7692717308        0.7086185545
 H          1.3300707244       -1.8364882751       -0.2557465407
 H          1.2738984777       -0.9570635069        1.3073661628
 H          2.3047059922       -0.3687501268       -0.0137727234
  10
  -14.6324166200000       1.285945431166815E-002 !
 C         -1.3852757063       -0.8716367972        0.2321279043
 S          0.0026843941        0.1520004111       -0.4329076472
 O          0.0033561152        1.3995043251        0.3887600300
 C          1.3776310021       -0.8690293087        0.2309283049
 H         -1.9383625916       -0.2476827617        0.9251531142
 H         -1.0117209413       -1.7571839764        0.7288092477
 H         -2.0154013489       -1.1470645925       -0.6051675095
 H          2.3070901828       -0.3689963020       -0.0203647316
 H          1.3295228367       -1.8362543155       -0.2529044030
 H          1.2812977859       -0.9511415950        1.3074505920
