  7
    -0.578299 !GC
 C          0.0000000000        0.0000000000        0.0000000000
 C          1.4792783373        0.0000000000        0.0000000000
 O          2.1997151853        0.9695883684        0.0000000000
 H         -0.3478186536        0.5670331622       -0.8596206108
 H         -0.3880316947       -1.0132685482       -0.0159004557
 H         -0.3399912701        0.5255961051        0.8931113880
 H          1.9168179935       -1.0162024059        0.0021038224
  7
    -0.203619 !GC
 C          0.0000000000        0.0000000000        0.0000000000
 C          1.4791669330        0.0000000000        0.0000000000
 O          2.1996521858        0.9693068627        0.0000000000
 H         -0.3021736141       -1.0496978463        0.0197360735
 H         -0.3881961450        0.4684873357        0.8987493260
 H         -0.3854508056        0.4296670725       -0.9194013194
 H          1.9167133546       -1.0164592685       -0.0019534386
  7
    -0.199308 !GC
 C          0.0000000000        0.0000000000        0.0000000000
 C          1.4792780850        0.0000000000        0.0000000000
 O          2.2000007538        0.9695692970        0.0000000000
 H         -0.3859602840        0.4245274311        0.9209407421
 H         -0.3873157762        0.4714664711       -0.8975822665
 H         -0.3010914004       -1.0499685344       -0.0253794360
 H          1.9170106185       -1.0159521055        0.0005753658
  7
    -0.168801 !GC
 C          0.0000000000        0.0000000000        0.0000000000
 C          1.4790743274        0.0000000000        0.0000000000
 O          2.1993902302        0.9694613242        0.0000000000
 H         -0.3025806891        0.4832251221        0.9317211727
 H         -0.4259546756        0.5140649052       -0.8534579453
 H         -0.3467631181       -1.0244534722        0.1137927080
 H          1.9168032458       -1.0161658789       -0.0023274303
  7
    -0.168086 !GC
 C          0.0000000000        0.0000000000        0.0000000000
 C          1.4791857317        0.0000000000        0.0000000000
 O          2.1994531734        0.9697428232        0.0000000000
 H         -0.3482090614       -1.0216319137       -0.1267859859
 H         -0.4257855132        0.5057210978        0.8582841454
 H         -0.3004275467        0.4953732211       -0.9263233842
 H          1.9169078035       -1.0159105198        0.0017287571
  7
    -0.115063 !GC
 C          0.0000000000        0.0000000000        0.0000000000
 C          1.4832140760        0.0000000000        0.0000000000
 O          2.1902615833        0.9797582222        0.0000000000
 H         -0.3062907919        1.0485777348       -0.0458562753
 H         -0.3898855486       -0.4783942488       -0.8939215762
 H         -0.3962433303       -0.4122286304        0.9196853862
 H          1.9407517828       -1.0067196181       -0.0039595532
  7
    -0.097098 !GC
 C          0.0000000000        0.0000000000        0.0000000000
 C          1.4833252280        0.0000000000        0.0000000000
 O          2.1906064422        0.9800239668        0.0000000000
 H         -0.3900121106       -0.4470485638       -0.9095131966
 H         -0.3890048033       -0.4618496784        0.9029723694
 H         -0.3125098984        1.0441434417        0.0087412803
 H          1.9410383670       -1.0062138943       -0.0014541874
  7
    -0.094399 !GC
 C          0.0000000000        0.0000000000        0.0000000000
 C          1.4832328747        0.0000000000        0.0000000000
 O          2.1900563079        0.9801911749        0.0000000000
 H         -0.3522878918        1.0239894251        0.1012582364
 H         -0.4274848814       -0.5151693788       -0.8529907409
 H         -0.3118498498       -0.4778950530        0.9286186850
 H          1.9409347408       -1.0061748393       -0.0003117701
