  7
  -10.3607342100000       0.333355673124712      !
 C         -1.2527363101        0.1649400338        0.0000028548
 C          0.1156597197       -0.4075604457        0.0000238348
 O          1.1461315871        0.2236268161       -0.0000057747
 H         -1.2208731209        1.2505420743        0.0004028501
 H         -1.7856926285       -0.1978463888       -0.8763705557
 H         -1.7860718492       -0.1985579569        0.8758368456
 H          0.1492131446       -1.5127541116       -0.0000955123
  7
  -10.3607341600000       0.333338035828418      !
 C         -1.2527643355        0.1649481471       -0.0002149104
 C          0.1156522519       -0.4075983864       -0.0001939285
 O          1.1461700098        0.2236456192       -0.0002235406
 H         -1.7859543322       -0.1989262314       -0.8760723597
 H         -1.7858378504       -0.1973375214        0.8762820319
 H         -1.2210347766        1.2505088753       -0.0010705131
 H          0.1492155481       -1.5128045459        0.0092809524
  7
  -10.3607340700000       0.333306291046870      !
 C         -1.2527843410        0.1649313364        0.0001668904
 C          0.1156761775       -0.4075328991        0.0001878687
 O          1.1461784484        0.2236110012        0.0001582609
 H         -1.7883207091       -0.2022110254        0.8733095979
 H         -1.2207149474        1.2504871091        0.0043561074
 H         -1.7839300664       -0.1940546281       -0.8788774605
 H          0.1491736499       -1.5128114110       -0.0055277274
