  14
  -17.7151190400000       5.681692968092832E-002 !
 C          2.1951199041        0.4804873299        0.1372741477
 C          1.2339064717       -0.5977685777       -0.3487702943
 C         -0.1109806988       -0.5572563537        0.3627644716
 H          0.0292614704       -0.5081706719        1.4448213222
 C         -1.0130005874       -1.7173120028       -0.0136997151
 Cl        -0.9623745089        0.9909762897       -0.0555385153
 H          2.3888732521        0.3677643323        1.2014039155
 H          1.7764065080        1.4695823060       -0.0325887165
 H          3.1387873949        0.4101744397       -0.3963476021
 H          1.6711442252       -1.5811223771       -0.1657445097
 H          1.0737067879       -0.4929601188       -1.4232066892
 H         -0.5486029892       -2.6485875343        0.3001796804
 H         -1.9793178981       -1.6263526278        0.4751320245
 H         -1.1672292063       -1.7450134097       -1.0894412011
  14
  -17.7151190400000       5.681692968092832E-002 !
 C          2.1949449426        0.4805842298        0.1372576243
 C          1.2338983426       -0.5978270683       -0.3487838988
 C         -0.1109350338       -0.5572960659        0.3628671831
 H          0.0292223561       -0.5083253887        1.4449595789
 C         -1.0130669941       -1.7172077625       -0.0137488824
 Cl        -0.9622817910        0.9909288192       -0.0555498113
 H          3.1387135152        0.4102364316       -0.3961820630
 H          2.3885349465        0.3681355778        1.2014371372
 H          1.7762016659        1.4696230975       -0.0328504390
 H          1.6712056837       -1.5811052112       -0.1655480908
 H          1.0737222453       -0.4932234736       -1.4232595001
 H         -1.9793364886       -1.6262262735        0.4751868395
 H         -1.1673782844       -1.7448457706       -1.0895011798
 H         -0.5486884355       -2.6485115581        0.3000842313
  14
  -17.7151190400000       5.681692968092832E-002 !
 C          2.1950940163        0.4805286669        0.1372841907
 C          1.2339197608       -0.5977735841       -0.3487738716
 C         -0.1110449747       -0.5573182802        0.3626373834
 H          0.0291612193       -0.5082682391        1.4446825669
 C         -1.0130745699       -1.7174232190       -0.0136422485
 Cl        -0.9623108213        0.9910247570       -0.0555197644
 H          3.1388238724        0.4103076500       -0.3962463925
 H          2.3887794321        0.3679552927        1.2014507981
 H          1.7763010523        1.4695659436       -0.0327023777
 H          1.6712549420       -1.5810735281       -0.1657149813
 H          1.0737380173       -0.4930321136       -1.4232166818
 H         -1.1673585213       -1.7450920111       -1.0893619637
 H         -0.5487395933       -2.6487381366        0.3002268895
 H         -1.9793733720       -1.6263850239        0.4751834036
  14
  -17.7151190400000       5.681692968092832E-002 !
 C          2.1950759554        0.4804237715        0.1373968721
 C          1.2338609033       -0.5976962168       -0.3489174304
 C         -0.1109387405       -0.5572365317        0.3627857010
 H          0.0293486296       -0.5081406725        1.4448438475
 C         -1.0129768079       -1.7173067803       -0.0136183282
 Cl        -0.9623600383        0.9909596781       -0.0555726876
 H          1.7762846226        1.4695152761       -0.0321113574
 H          3.1386327511        0.4103586177       -0.3964319673
 H          2.3889968745        0.3674625852        1.2014760446
 H          1.6710545395       -1.5811217706       -0.1661733161
 H          1.0736002059       -0.4926147527       -1.4233231546
 H         -1.1672079084       -1.7451350457       -1.0893593898
 H         -0.5486081484       -2.6485703452        0.3003653711
 H         -1.9792976503       -1.6262585893        0.4751922175
  14
  -17.7151190200000       5.681572722591525E-002 !
 C          2.1949785944        0.4806264970        0.1372811804
 C          1.2338995700       -0.5977357381       -0.3488084493
 C         -0.1108963360       -0.5573298863        0.3629340048
 H          0.0292522371       -0.5083876973        1.4450358079
 C         -1.0131606596       -1.7171152152       -0.0137413945
 Cl        -0.9622706026        0.9908479961       -0.0555760610
 H          1.7762724454        1.4696948519       -0.0327256533
 H          3.1387145973        0.4102945696       -0.3962069048
 H          2.3886173322        0.3680571859        1.2014462657
 H          1.6711557492       -1.5810422660       -0.1656580008
 H          1.0737356375       -0.4930444200       -1.4232797153
 H         -1.9794322344       -1.6261132293        0.4751970837
 H         -1.1674688314       -1.7447207478       -1.0894918081
 H         -0.5488038882       -2.6484297288        0.3000591051
  14
  -17.7151189800000       5.681332239244724E-002 !
 C          2.1946387397        0.4806107962        0.1372425923
 C          1.2337728084       -0.5979564050       -0.3487848178
 C         -0.1110026515       -0.5573363970        0.3628991192
 H          0.0292303758       -0.5083383469        1.4449761046
 C         -1.0130104167       -1.7173374549       -0.0137726605
 Cl        -0.9620965746        0.9910328234       -0.0555350895
 H          1.7759009762        1.4696299101       -0.0330128421
 H          3.1384020694        0.4101774444       -0.3961734038
 H          2.3882076778        0.3682735082        1.2014483335
 H          1.6711009123       -1.5812431299       -0.1655702481
 H          1.0735385513       -0.4933337033       -1.4232453086
 H         -0.5488425279       -2.6488425767        0.2998002840
 H         -1.9792475325       -1.6262305575        0.4751968713
 H         -1.1673318473       -1.7447426772       -1.0895182322
  14
  -17.7151189700000       5.681272119993157E-002 !
 C          2.1947738637        0.4807534423        0.1370385100
 C          1.2338487620       -0.5979777363       -0.3485276552
 C         -0.1110519291       -0.5573889603        0.3628745692
 H          0.0291671002       -0.5082635813        1.4449369298
 C         -1.0131474441       -1.7172808569       -0.0139013470
 Cl        -0.9621087814        0.9909742634       -0.0554922127
 H          2.3881633864        0.3686863649        1.2012826125
 H          1.7760933431        1.4697472617       -0.0335624554
 H          3.1386372352        0.4101443374       -0.3962038506
 H          1.6711561493       -1.5812331300       -0.1651040933
 H          1.0736304020       -0.4935939784       -1.4229838666
 H         -1.1676457496       -1.7447214412       -1.0896341483
 H         -0.5487645568       -2.6486814768        0.2997380642
 H         -1.9793444895       -1.6261683962        0.4751177067
  14
  -17.7151188900000       5.680791188925083E-002 !
 C          2.1936010432        0.4812710395        0.1372900060
 C          1.2336103353       -0.5981856835       -0.3488841061
 C         -0.1112100181       -0.5578617731        0.3626220117
 H          0.0286314349       -0.5093237177        1.4447076273
 C         -1.0136780949       -1.7175251871       -0.0136083495
 Cl        -0.9612353702        0.9911276005       -0.0554783291
 H          3.1376074353        0.4102187908       -0.3954935741
 H          2.3867573065        0.3693884075        1.2016155656
 H          1.7753982563        1.4705189422       -0.0335499618
 H          1.6705994115       -1.5816148226       -0.1653999586
 H          1.0733973897       -0.4937746448       -1.4233692925
 H         -0.5492702247       -2.6490934621        0.2994085060
 H         -1.9801015947       -1.6265723028        0.4752699552
 H         -1.1676239553       -1.7443689219       -1.0893215365
  14
  -17.7151187900000       5.680190082329847E-002 !
 C          2.1948989297        0.4808875756        0.1368637410
 C          1.2340851941       -0.5981087005       -0.3483071483
 C         -0.1110649410       -0.5574129797        0.3627449713
 H          0.0287841681       -0.5086708839        1.4448096066
 C         -1.0132837163       -1.7172727760       -0.0139849703
 Cl        -0.9621990147        0.9909953528       -0.0554128815
 H          2.3865501614        0.3702880320        1.2017553158
 H          1.7770967625        1.4698821200       -0.0359355354
 H          3.1394250456        0.4088588638       -0.3951916705
 H          1.6715300542       -1.5811117334       -0.1641822179
 H          1.0745691761       -0.4943423384       -1.4229168697
 H         -1.9795983423       -1.6265668950        0.4750211605
 H         -1.1677350446       -1.7442420147       -1.0896715232
 H         -0.5488840949       -2.6487688204        0.2991040149
  14
  -17.7146981600000       3.639608792196867E-002 !
 C          2.4834171404       -0.4788481740        0.2033910637
 C          1.2461543924        0.2308244810       -0.3396016504
 C         -0.0237560485       -0.1960328386        0.3857920041
 H          0.0665108122       -0.0064745589        1.4577557907
 C         -0.4310288989       -1.6325526494        0.1262116312
 Cl        -1.3758737434        0.8908076970       -0.1567824936
 H          2.4433450411       -1.5448855985        0.0016586249
 H          2.5685538838       -0.3290469024        1.2766875773
 H          3.3728724880       -0.0753670768       -0.2720773933
 H          1.1369474613        0.0237533340       -1.4056276715
 H          1.3708465600        1.3088082084       -0.2196436766
 H          0.3180891518       -2.3004810078        0.5417111581
 H         -1.3861286760       -1.8481323868        0.5978432181
 H         -0.5192863128       -1.8160069140       -0.9416902466
  14
  -17.7146981400000       3.639531764700619E-002 !
 C          2.4835585698       -0.4782626340        0.2038328332
 C          1.2460925139        0.2302863700       -0.3401720117
 C         -0.0237356663       -0.1961644601        0.3856103601
 H          0.0668700538       -0.0063825137        1.4575001124
 C         -0.4313626672       -1.6326644030        0.1264568818
 Cl        -1.3757770061        0.8908707080       -0.1567781909
 H          2.4437332874       -1.5446262349        0.0037804476
 H          2.5687053112       -0.3267668978        1.2768938354
 H          3.3729085522       -0.0753209080       -0.2722931507
 H          1.1370599680        0.0219039614       -1.4059537815
 H          1.3704085940        1.3084516937       -0.2214919405
 H         -0.5206692724       -1.8160842031       -0.9413532139
 H          0.3181238645       -2.3006705316        0.5411270696
 H         -1.3860061450       -1.8482186794        0.5990310314
  14
  -17.7146981400000       3.639531764700619E-002 !
 C          2.4834815043       -0.4784540795        0.2037059853
 C          1.2460835710        0.2304212801       -0.3400126261
 C         -0.0237518991       -0.1961286698        0.3856733624
 H          0.0668082821       -0.0064070574        1.4575790078
 C         -0.4312207641       -1.6326479404        0.1263819627
 Cl        -1.3757950714        0.8908746908       -0.1567812554
 H          2.5686016052       -0.3274855460        1.2768344371
 H          3.3728529096       -0.0753011500       -0.2721842549
 H          2.4436110166       -1.5447140605        0.0031265764
 H          1.1369816694        0.0224278347       -1.4058645425
 H          1.3704909486        1.3085267604       -0.2209310599
 H          0.3181933281       -2.3006092149        0.5412997645
 H         -1.3859975396       -1.8481801653        0.5987079705
 H         -0.5202451988       -1.8160607723       -0.9414654217
  14
  -17.7146981400000       3.639531764700619E-002 !
 C          2.4834638884       -0.4785600878        0.2035914036
 C          1.2460890950        0.2305440165       -0.3398660474
 C         -0.0237829358       -0.1961275357        0.3857275606
 H          0.0666345217       -0.0064605823        1.4576611582
 C         -0.4311755804       -1.6326529055        0.1263173326
 Cl        -1.3758023943        0.8908754894       -0.1567822806
 H          3.3729174532       -0.0753190748       -0.2720459319
 H          2.4435754494       -1.5447225339        0.0025727618
 H          2.5685841793       -0.3280646329        1.2767769503
 H          1.1370269052        0.0228872323       -1.4057952100
 H          1.3706569471        1.3085989358       -0.2204624362
 H          0.3181624121       -2.3006325387        0.5413303408
 H         -1.3860651206       -1.8482262759        0.5983892122
 H         -0.5199626423       -1.8160456719       -0.9415452774
  14
  -17.7146981300000       3.639493251563817E-002 !
 C          2.4834056592       -0.4781662488        0.2040214654
 C          1.2460154391        0.2301741001       -0.3404312404
 C         -0.0236833080       -0.1961806148        0.3856354183
 H          0.0670953535       -0.0062983229        1.4575532735
 C         -0.4314034299       -1.6326677422        0.1265498717
 Cl        -1.3756818354        0.8908824934       -0.1568088143
 H          3.3728069134       -0.0756099846       -0.2723721804
 H          2.4434229449       -1.5446514142        0.0046464429
 H          2.5685882147       -0.3260245270        1.2769997635
 H          1.1371058828        0.0213135828       -1.4061420948
 H          1.3701418031        1.3084188062       -0.2221948974
 H         -1.3859483489       -1.8481290165        0.5993998342
 H         -0.5209950846       -1.8160745634       -0.9412450832
 H          0.3181713930       -2.3006518341        0.5411070476
  14
  -17.7146981300000       3.639493251563817E-002 !
 C          2.4834412800       -0.4787315979        0.2034910288
 C          1.2461292980        0.2306861139       -0.3397334049
 C         -0.0237623192       -0.1960586484        0.3857598994
 H          0.0665940136       -0.0064302089        1.4576981860
 C         -0.4310709241       -1.6325921043        0.1262631312
 Cl        -1.3758553606        0.8908398222       -0.1567810865
 H          2.5685369735       -0.3286410804        1.2767477560
 H          3.3728977983       -0.0753450497       -0.2720290610
 H          2.4434709821       -1.5448156483        0.0020375081
 H          1.1369630120        0.0232940111       -1.4057006599
 H          1.3707448280        1.3087081745       -0.2200707200
 H         -0.5196770063       -1.8159890345       -0.9416200927
 H          0.3182044723       -2.3005472231        0.5414726540
 H         -1.3860443765       -1.8481594383        0.5981800059
  14
  -17.7146981200000       3.639454738848238E-002 !
 C          2.4835245416       -0.4781050041        0.2039311466
 C          1.2460082854        0.2301579939       -0.3403034002
 C         -0.0237374518       -0.1962229496        0.3856395325
 H          0.0669475631       -0.0063468549        1.4575049712
 C         -0.4314471340       -1.6327040533        0.1264905120
 Cl        -1.3756943309        0.8908909559       -0.1567897443
 H          2.5688203469       -0.3260656947        1.2768918908
 H          3.3728009816       -0.0753805443       -0.2724701203
 H          2.4437371092       -1.5445582496        0.0043974858
 H          1.1370131689        0.0214659066       -1.4060232817
 H          1.3702082888        1.3083584969       -0.2219240156
 H         -1.3860333262       -1.8482190225        0.5992200622
 H         -0.5209364583       -1.8161080276       -0.9413061078
 H          0.3181055061       -2.3007516608        0.5410016619
  14
  -17.7146980600000       3.639223671044495E-002 !
 C          2.4831769762       -0.4794604541        0.2029272680
 C          1.2461096598        0.2313932827       -0.3389982034
 C         -0.0238576393       -0.1959971660        0.3859574061
 H          0.0660531019       -0.0066541878        1.4579935254
 C         -0.4306665851       -1.6325582639        0.1259780055
 Cl        -1.3758719287        0.8908254629       -0.1567950422
 H          3.3728331701       -0.0751434913       -0.2714568793
 H          2.4430661964       -1.5450934307       -0.0009401201
 H          2.5680657195       -0.3317751191        1.2765451715
 H          1.1367558477        0.0257860665       -1.4052880523
 H          1.3711268251        1.3091805952       -0.2176363449
 H         -0.5180099500       -1.8160257063       -0.9419566181
 H          0.3182128779       -2.3003286580        0.5420551048
 H         -1.3861291508       -1.8482439455        0.5968918347
  14
  -17.7146978400000       3.638376547955514E-002 !
 C          2.4849134515       -0.4768205537        0.2043303843
 C          1.2466782766        0.2294870782       -0.3408876463
 C         -0.0232055364       -0.1956957689        0.3857895985
 H          0.0682848655       -0.0062690885        1.4576931285
 C         -0.4324222480       -1.6315232049        0.1264166735
 Cl        -1.3763503063        0.8899564418       -0.1567419494
 H          2.4449909652       -1.5438231080        0.0078744061
 H          2.5706993988       -0.3221019152        1.2768357065
 H          3.3742529607       -0.0758001402       -0.2734219145
 H          1.1378664712        0.0186789373       -1.4061582669
 H          1.3706282149        1.3079293463       -0.2247458709
 H         -1.3863106764       -1.8467718163        0.6007360156
 H         -0.5235955017       -1.8144197227       -0.9413376800
 H          0.3176666270       -2.2998219069        0.5394321502
  14
  -17.7140277900000       1.790498594203588E-002 !
 C          1.9861527261        0.0249395393       -0.6500609588
 C          1.2756937267       -0.3191418424        0.6542844835
 C         -0.2258446388       -0.5412461549        0.5087520303
 H         -0.6562216910       -0.7688342675        1.4869526615
 C         -0.6092733944       -1.6095313125       -0.4967543880
 Cl        -1.0175445453        1.0217379456        0.0286157556
 H          1.5110215000        0.8797112711       -1.1256166963
 H          1.9680167405       -0.8138927570       -1.3395385119
 H          3.0232462346        0.2781382524       -0.4478501673
 H          1.4374241835        0.4849053753        1.3749175889
 H          1.7010181082       -1.2337083020        1.0722859997
 H         -0.1209888851       -2.5426394500       -0.2273025225
 H         -1.6852623387       -1.7625950057       -0.4941946925
 H         -0.3046860358       -1.3246648942       -1.4994669905
  14
  -17.7140277900000       1.790498594203588E-002 !
 C          1.9861492561        0.0249351892       -0.6500618375
 C          1.2756960976       -0.3191378459        0.6542857519
 C         -0.2258424359       -0.5412453809        0.5087518193
 H         -0.6562205314       -0.7688354055        1.4869523687
 C         -0.6092726374       -1.6095294755       -0.4967540983
 Cl        -1.0175452502        1.0217369838        0.0286155400
 H          1.5110118371        0.8797071584       -1.1256088102
 H          1.9680136882       -0.8138963073       -1.3395426393
 H          3.0232394970        0.2781393498       -0.4478557890
 H          1.4374296752        0.4849124820        1.3749181474
 H          1.7010269923       -1.2337037759        1.0722799248
 H         -0.3046826440       -1.3246651056       -1.4994634254
 H         -0.1209863137       -2.5426351231       -0.2272997852
 H         -1.6852617625       -1.7625961201       -0.4941913215
  14
  -17.7140277700000       1.790460700680651E-002 !
 C          1.9862495235        0.0248854620       -0.6500771878
 C          1.2758597031       -0.3191916642        0.6543046673
 C         -0.2257342320       -0.5411755188        0.5087570417
 H         -0.6561671416       -0.7689285415        1.4868751429
 C         -0.6092033140       -1.6093603118       -0.4967793375
 Cl        -1.0177175191        1.0216827295        0.0286308875
 H          3.0233772384        0.2782760256       -0.4479532402
 H          1.5108763840        0.8795898385       -1.1257411555
 H          1.9680757179       -0.8140430288       -1.3394680063
 H          1.4377238588        0.4848151036        1.3748887903
 H          1.7012088988       -1.2337682348        1.0722507979
 H         -0.3045549986       -1.3244904603       -1.4993516320
 H         -0.1210375887       -2.5423988715       -0.2272924596
 H         -1.6851323842       -1.7623307577       -0.4943633570
  14
  -17.7140277700000       1.790460700680651E-002 !
 C          1.9862088635        0.0248849027       -0.6500871543
 C          1.2758392026       -0.3191842861        0.6543155760
 C         -0.2257488372       -0.5411855304        0.5087698100
 H         -0.6561712825       -0.7689086654        1.4868999816
 C         -0.6092030994       -1.6093727935       -0.4967856385
 Cl        -1.0176872518        1.0216892654        0.0286302615
 H          1.9680450244       -0.8140380267       -1.3394639991
 H          3.0233301587        0.2782775080       -0.4479798188
 H          1.5108473123        0.8795741491       -1.1257805486
 H          1.4376874881        0.4848305757        1.3749100876
 H          1.7011877838       -1.2337711782        1.0722608975
 H         -0.3045432770       -1.3245002373       -1.4993632547
 H         -0.1210454589       -2.5424307973       -0.2273177178
 H         -1.6851320991       -1.7623553657       -0.4943870194
  14
  -17.7140277600000       1.790441754216556E-002 !
 C          1.9863104372        0.0246036177       -0.6500824772
 C          1.2757585367       -0.3189596659        0.6543495645
 C         -0.2257446725       -0.5411169552        0.5088018682
 H         -0.6561413694       -0.7690427862        1.4869275003
 C         -0.6089889714       -1.6093878220       -0.4967635272
 Cl        -1.0177994654        1.0217029140        0.0285949348
 H          1.9684371723       -0.8145836351       -1.3390825302
 H          3.0233241579        0.2783041307       -0.4479619780
 H          1.5109806506        0.8789818947       -1.1262453039
 H          1.4375096815        0.4853138954        1.3746439179
 H          1.7011456581       -1.2333350866        1.0727168249
 H         -1.6848849711       -1.7628170331       -0.4940471863
 H         -0.3047558362       -1.3242777571       -1.4994779802
 H         -0.1203128745       -2.5423085765       -0.2275583192
  14
  -17.7140277400000       1.790403861889831E-002 !
 C          1.9862430313        0.0249936722       -0.6500097746
 C          1.2756197485       -0.3191184747        0.6542174685
 C         -0.2259477963       -0.5412963509        0.5087962744
 H         -0.6563634218       -0.7689844982        1.4869583528
 C         -0.6092945055       -1.6095882563       -0.4967238375
 Cl        -1.0174998904        1.0217468848        0.0285981669
 H          3.0233984656        0.2780143761       -0.4479573592
 H          1.5111788177        0.8797800274       -1.1255449493
 H          1.9678102757       -0.8136650911       -1.3395178666
 H          1.4373716675        0.4849642528        1.3748342421
 H          1.7009435423       -1.2337042775        1.0721874195
 H         -1.6852647788       -1.7626448762       -0.4939927791
 H         -0.3048931779       -1.3246759095       -1.4994164055
 H         -0.1208980044       -2.5426250205       -0.2274479467
  14
  -17.7140277400000       1.790403861889831E-002 !
 C          1.9858936563        0.0249035346       -0.6501326205
 C          1.2756051158       -0.3192351951        0.6543256826
 C         -0.2259040394       -0.5412412485        0.5088623899
 H         -0.6561239005       -0.7690361773        1.4870162193
 C         -0.6090672199       -1.6094216024       -0.4968398435
 Cl        -1.0174655457        1.0217756402        0.0286163732
 H          1.5106406388        0.8793589048       -1.1261475353
 H          1.9680583567       -0.8141615490       -1.3393321180
 H          3.0228316525        0.2784211679       -0.4478001215
 H          1.4372136905        0.4845856469        1.3751384335
 H          1.7007371744       -1.2339582702        1.0723182814
 H         -1.6850466943       -1.7623670347       -0.4946282202
 H         -0.3041265152       -1.3250804189       -1.4995838245
 H         -0.1210012605       -2.5424922515       -0.2267499345
  14
  -17.7140277100000       1.790347024910108E-002 !
 C          1.9862164297        0.0250155524       -0.6500093171
 C          1.2754654297       -0.3191094767        0.6542353309
 C         -0.2260782371       -0.5413594433        0.5087951579
 H         -0.6566111033       -0.7689724592        1.4869192237
 C         -0.6092748349       -1.6097272196       -0.4967102605
 Cl        -1.0173875990        1.0218065828        0.0285996792
 H          3.0234139304        0.2780551428       -0.4482425338
 H          1.5113455673        0.8797647564       -1.1256904306
 H          1.9675969450       -0.8136891321       -1.3394062241
 H          1.4370678593        0.4850815647        1.3747091356
 H          1.7006432403       -1.2336357792        1.0724825324
 H         -0.1205634941       -2.5427856968       -0.2275455600
 H         -1.6852323703       -1.7630884555       -0.4941994375
 H         -0.3048510663       -1.3243309852       -1.4993439765
  14
  -17.7140276900000       1.790309134594933E-002 !
 C          1.9858072144        0.0246072690       -0.6503235142
 C          1.2760318199       -0.3192068295        0.6546428346
 C         -0.2254952179       -0.5410183945        0.5086389481
 H         -0.6561711583       -0.7681728739        1.4867113928
 C         -0.6090103086       -1.6092479255       -0.4969069154
 Cl        -1.0177432191        1.0216933885        0.0287102542
 H          1.9678990116       -0.8145603751       -1.3393754104
 H          3.0228533030        0.2782688157       -0.4483686626
 H          1.5103572566        0.8789712071       -1.1266940996
 H          1.4374255800        0.4849399012        1.3751069724
 H          1.7011919148       -1.2336482346        1.0732584472
 H         -0.1210070327       -2.5422816392       -0.2273787065
 H         -1.6848037073       -1.7622770976       -0.4949010264
 H         -0.3043995713       -1.3246093709       -1.4994725753
