  13
  -20.9654190100000       2.829366740643584E-002 !
 C         -1.1489808474       -1.2825723373       -0.5848626438
 C         -0.6769900539       -0.2271472887        0.4182224855
 C         -1.5370668217        1.0227814185        0.3828465544
 N          0.7130569878        0.0860210939        0.0490830418
 O          1.5815810966       -0.6444331791        0.4872306646
 O          0.9294934235        1.0160548364       -0.6964046175
 H         -0.4934401406       -2.1500581880       -0.5628648647
 H         -2.1548486381       -1.5964632156       -0.3252648441
 H         -1.1579487620       -0.8681066847       -1.5902094754
 H         -0.6313112646       -0.6659613081        1.4185161047
 H         -1.1656888200        1.7674361206        1.0821155982
 H         -2.5558013207        0.7656636531        0.6535250357
 H         -1.5347031884        1.4556368085       -0.6139396639
  13
  -20.9654181200000       2.826703316082806E-002 !
 C         -1.1480246567       -1.2854558787       -0.5805860143
 C         -0.6771457647       -0.2258056453        0.4185888091
 C         -1.5378271632        1.0235310710        0.3785277396
 N          0.7130113910        0.0865784171        0.0491127122
 O          1.5805840152       -0.6480673969        0.4822278102
 O          0.9304751140        1.0201011466       -0.6917487483
 H         -1.1581452639       -0.8746618287       -1.5874310526
 H         -0.4911088127       -2.1517952358       -0.5557429642
 H         -2.1532427269       -1.5999990111       -0.3193837529
 H         -0.6317806957       -0.6611371461        1.4204659341
 H         -2.5563589773        0.7670319925        0.6504679731
 H         -1.5360207936        1.4525820260       -0.6199076064
 H         -1.1666852230        1.7712808234        1.0746424031
  13
  -20.9654175500000       2.824998844551669E-002 !
 C         -1.1505674140       -1.2764948855       -0.5934726750
 C         -0.6766429710       -0.2295769338        0.4176180969
 C         -1.5362969335        1.0211353475        0.3916439480
 N          0.7133372725        0.0853877152        0.0497201452
 O          1.5835768204       -0.6375022945        0.4969307171
 O          0.9278090078        1.0075272728       -0.7061451421
 H         -1.1562875650       -0.8548055113       -1.5957989670
 H         -0.4983778524       -2.1465833371       -0.5766785296
 H         -2.1581052192       -1.5884997836       -0.3380874015
 H         -0.6303668826       -0.6754779485        1.4147438604
 H         -1.1654444838        1.7601971720        1.0971209200
 H         -2.5554341498        0.7622180285        0.6591820399
 H         -1.5329666712        1.4613919726       -0.6018456871
  13
  -20.9654174700000       2.824759702728631E-002 !
 C         -1.1496537305       -1.2798318093       -0.5890031891
 C         -0.6768920082       -0.2283996811        0.4178999539
 C         -1.5363790763        1.0221752348        0.3870702961
 N          0.7130519869        0.0855013853        0.0491236670
 O          1.5824757092       -0.6410280743        0.4919884204
 O          0.9285184071        1.0121119239       -0.7009505315
 H         -2.1562297395       -1.5929931554       -0.3313209205
 H         -1.1570947888       -0.8619879348       -1.5929777963
 H         -0.4956334135       -2.1484800557       -0.5693396889
 H         -0.6309753639       -0.6705272203        1.4167331486
 H         -1.5339298607        1.4584905504       -0.6081806414
 H         -1.1646613403        1.7642028691        1.0889891206
 H         -2.5552172802        0.7646915638        0.6568994313
  13
  -20.9654170700000       2.823564297289774E-002 !
 C         -1.1509380319       -1.2757044278       -0.5950932805
 C         -0.6766949424       -0.2302788406        0.4173188020
 C         -1.5354330689        1.0211332488        0.3933230779
 N          0.7131389717        0.0847377303        0.0491462692
 O          1.5838938584       -0.6358399772        0.4990809758
 O          0.9272108577        1.0062467806       -0.7076345239
 H         -2.1580088513       -1.5885540757       -0.3389919114
 H         -1.1577595839       -0.8523429241       -1.5967448924
 H         -0.4984215367       -2.1456106570       -0.5802793611
 H         -0.6303082807       -0.6775742502        1.4137785601
 H         -1.1644205031        1.7585248398        1.1004900655
 H         -2.5548593281        0.7624452318        0.6600135046
 H         -1.5312451743        1.4634938257       -0.5992762330
  13
  -20.9654154600000       2.818757904067878E-002 !
 C         -1.1529606635       -1.2698139702       -0.6036623092
 C         -0.6763757583       -0.2330704819        0.4166482656
 C         -1.5337689588        1.0195373589        0.4018437310
 N          0.7132381687        0.0837560326        0.0493826680
 O          1.5858686037       -0.6283476293        0.5088758624
 O          0.9252124316        0.9978692023       -0.7168366945
 H         -2.1612546117       -1.5817856771       -0.3511122563
 H         -1.1573494859       -0.8390438536       -1.6021246704
 H         -0.5032156207       -2.1417655158       -0.5949436429
 H         -0.6292015690       -0.6871269807        1.4099925074
 H         -2.5544017977        0.7592674064        0.6620142733
 H         -1.5255556307        1.4710730764       -0.5865125524
 H         -1.1645783760        1.7495480932        1.1175492364
  13
  -20.9654154400000       2.818698248803341E-002 !
 C         -1.1533584931       -1.2702389005       -0.6026746061
 C         -0.6763032821       -0.2328688350        0.4165570026
 C         -1.5341258038        1.0194539417        0.4010248154
 N          0.7133214695        0.0831787845        0.0484206211
 O          1.5859428616       -0.6286758020        0.5083949254
 O          0.9256991261        0.9989831596       -0.7156603431
 H         -0.5032862761       -2.1419951366       -0.5935161330
 H         -2.1615621652       -1.5820164514       -0.3493553637
 H         -1.1581560995       -0.8397145209       -1.6012501234
 H         -0.6289549156       -0.6864734028        1.4101254891
 H         -2.5547995125        0.7592889070        0.6614788525
 H         -1.5258123010        1.4705447933       -0.5876295131
 H         -1.1649184437        1.7497356468        1.1164162775
  13
  -20.9653949100000       2.758123133677211E-002 !
 C         -1.3171822378       -0.9453304875       -0.9616695260
 C         -0.6574010294       -0.4079049795        0.2955940352
 C         -1.3823634417        0.8218626845        0.8474004621
 N          0.7187098684        0.0307916688        0.0126484766
 O          1.5242207781       -0.0438480891        0.9210539371
 O          0.9786973932        0.4819309238       -1.0812550707
 H         -2.3353680115       -1.2432290833       -0.7342620849
 H         -1.3365363471       -0.1810272018       -1.7339916004
 H         -0.7768028667       -1.8077819852       -1.3432743307
 H         -0.5768611278       -1.1700796825        1.0750639286
 H         -0.8717085800        1.2038234508        1.7283410452
 H         -2.3950101973        0.5450804461        1.1223579040
 H         -1.4231220076        1.6033742980        0.0922385881
  13
  -20.9654149400000       2.817207277292593E-002 !
 C         -1.1531511048       -1.2680465444       -0.6061178682
 C         -0.6763273269       -0.2336891854        0.4165527477
 C         -1.5335757917        1.0190500111        0.4043057278
 N          0.7133107094        0.0839602145        0.0500359360
 O          1.5862805160       -0.6265623086        0.5113250528
 O          0.9247147510        0.9952431740       -0.7197285343
 H         -0.5039805318       -2.1404188466       -0.5992316962
 H         -2.1616474446       -1.5801398162       -0.3547254900
 H         -1.1570664757       -0.8352070779       -1.6036624311
 H         -0.6292687792       -0.6897353664        1.4089853061
 H         -1.5241771772        1.4733895452       -0.5827811169
 H         -1.1652249764        1.7468588405        1.1226287210
 H         -2.5544479226        0.7580457276        0.6626593776
  13
  -20.9654137800000       2.813751259985859E-002 !
 C         -1.1530314195       -1.2684033003       -0.6062559469
 C         -0.6765314716       -0.2340044869        0.4163771525
 C         -1.5327295374        1.0194558288        0.4045741628
 N          0.7129683172        0.0834001788        0.0492622029
 O          1.5861086099       -0.6261602127        0.5118754249
 O          0.9243893692        0.9955395697       -0.7196047495
 H         -1.1611810445       -0.8337158710       -1.6030260471
 H         -0.5012047324       -2.1390263681       -0.6024259806
 H         -2.1597627167       -1.5838067034       -0.3517337261
 H         -0.6293074163       -0.6903750750        1.4086051018
 H         -1.5187912437        1.4764526868       -0.5812605347
 H         -1.1670244879        1.7450045775        1.1267447518
 H         -2.5549676682        0.7581273501        0.6575591139
  13
  -20.9654080800000       2.796830608234986E-002 !
 C         -1.1518679263       -1.2724948107       -0.6006627253
 C         -0.6764716137       -0.2319476587        0.4163652244
 C         -1.5352276143        1.0192462480        0.4009132535
 N          0.7133709631        0.0844511200        0.0489296079
 O          0.9305222536        1.0294351286       -0.6772683249
 O          1.5808051998       -0.6585191679        0.4677264546
 H         -0.4977988291       -2.1412542214       -0.5913369371
 H         -2.1578084201       -1.5884354004       -0.3441080949
 H         -1.1617274353       -0.8444860958       -1.6003229805
 H         -0.6292299367       -0.6850959954        1.4102078557
 H         -1.5316189513        1.4684663519       -0.5886752407
 H         -1.1631277921        1.7519169949        1.1123508381
 H         -2.5545000211        0.7592965399        0.6668567680
  13
  -20.9654060900000       2.790947217523253E-002 !
 C         -1.1028685139       -1.5056110128        0.2668335264
 C         -0.7077254105       -0.0487330150        0.4271681603
 C         -1.5178278174        0.8738333268       -0.4867440854
 N          0.7013784742        0.1518201047        0.0524208873
 O          1.1887638298       -0.5541289886       -0.8030117936
 O          1.2983381208        1.0592163453        0.5999697303
 H         -0.5014755348       -2.1422147296        0.9106635701
 H         -2.1476968717       -1.6262487048        0.5331390372
 H         -0.9612302402       -1.8243878388       -0.7623758478
 H         -0.7954727637        0.2888785213        1.4631801307
 H         -1.1929121619        1.9055027778       -0.3732341652
 H         -2.5678928077        0.8060929573       -0.2214282488
 H         -1.3967357293        0.5742405524       -1.5251493042
  13
  -20.9654059600000       2.790563306356705E-002 !
 C         -1.1029254150       -1.5054852025        0.2675236208
 C         -0.7077557259       -0.0485023543        0.4271905123
 C         -1.5177599245        0.8733502864       -0.4874553762
 N          0.7014002808        0.1518347384        0.0524804271
 O          1.1876159415       -0.5518503801       -0.8054771312
 O          1.2994877447        1.0570674469        0.6023996150
 H         -2.1481744313       -1.6257223399        0.5323658757
 H         -0.9598246454       -1.8251002487       -0.7612340254
 H         -0.5025967485       -2.1415619912        0.9128657997
 H         -0.7956317095        0.2896698470        1.4629988418
 H         -1.3962729271        0.5731203835       -1.5256314269
 H         -1.1931335435        1.9051830600       -0.3745005497
 H         -2.5678824237        0.8055207532       -0.2223477466
  13
  -20.9654058400000       2.790208973693040E-002 !
 C         -1.1035496755       -1.5059576779        0.2638151837
 C         -0.7074893704       -0.0497791354        0.4270540509
 C         -1.5180083315        0.8753852052       -0.4839210341
 N          0.7016010335        0.1515773962        0.0524746691
 O          1.1940667235       -0.5635931550       -0.7923018740
 O          1.2934979905        1.0686226912        0.5894387783
 H         -0.9660656385       -1.8217493095       -0.7668710668
 H         -0.4997273910       -2.1447972969        0.9031455824
 H         -2.1473635692       -1.6271670376        0.5338296259
 H         -0.7948463775        0.2856825793        1.4638403257
 H         -1.1917561698        1.9064357412       -0.3689093930
 H         -2.5677002871        0.8081695202       -0.2170384354
 H         -1.3989399061        0.5776841390       -1.5231027999
  13
  -20.9654055400000       2.789323338853961E-002 !
 C         -1.3206693264       -0.9324107328       -0.9703760008
 C         -0.6568024435       -0.4112689433        0.2911581317
 C         -1.3798815266        0.8109937913        0.8620996854
 N          0.7190078766        0.0304383140        0.0111396426
 O          1.5161183556       -0.0202404657        0.9285657101
 O          0.9869944218        0.4596983797       -1.0895105849
 H         -0.7766541105       -1.7845449918       -1.3695271331
 H         -2.3352598704       -1.2411757067       -0.7414897112
 H         -1.3503062399       -0.1562606846       -1.7304129654
 H         -0.5749469500       -1.1831598991        1.0609377459
 H         -2.3911702210        0.5302372221        1.1380133613
 H         -1.4246626500        1.6025729004        0.1176991807
 H         -0.8647944318        1.1812216968        1.7454743974
  13
  -20.9653946200000       2.757276860352155E-002 !
 C         -1.3164464616       -0.9480120609       -0.9597993869
 C         -0.6575146406       -0.4072016528        0.2965345396
 C         -1.3828596409        0.8241307978        0.8442598889
 N          0.7186738657        0.0307633010        0.0129423482
 O          1.5258657777       -0.0487172152        0.9194125563
 O          0.9769428967        0.4865893195       -1.0794313077
 H         -1.3337812771       -0.1861879090       -1.7346163629
 H         -0.7767214101       -1.8124734680       -1.3377663235
 H         -2.3353132172       -1.2438107137       -0.7326997254
 H         -0.5772881396       -1.1673461114        1.0780041576
 H         -1.4225452693        1.6035966882        0.0869278651
 H         -0.8731516879        1.2083889949        1.7247445462
 H         -2.3958707703        0.5482778874        1.1188320108
  13
  -20.9654054800000       2.789146245628210E-002 !
 C         -1.3187688205       -0.9395470206       -0.9657968986
 C         -0.6571912929       -0.4095158318        0.2934510884
 C         -1.3809228409        0.8169310515        0.8543515443
 N          0.7187988189        0.0306117606        0.0119486096
 O          1.5203269008       -0.0328434472        0.9246543563
 O          0.9824710097        0.4717244640       -1.0851819380
 H         -0.7774207429       -1.7980512893       -1.3549348410
 H         -2.3356807218       -1.2413364348       -0.7379275509
 H         -1.3418692375       -0.1701748274       -1.7329139338
 H         -0.5761436210       -1.1761503018        1.0685181441
 H         -1.4232551826        1.6033978294        0.1044140968
 H         -0.8680905192        1.1929015166        1.7366280108
 H         -2.3930359645        0.5384485373        1.1294849052
  13
  -20.9654054000000       2.788910138810126E-002 !
 C         -1.1028652794       -1.5054473927        0.2682968972
 C         -0.7078266968       -0.0482860397        0.4271223324
 C         -1.5177160798        0.8730049493       -0.4881575340
 N          0.7013575791        0.1519413305        0.0524216896
 O          1.1863450632       -0.5493342045       -0.8082188888
 O          1.3007508485        1.0545768910        0.6051888813
 H         -0.5035653629       -2.1408995709        0.9151680915
 H         -2.1484930516       -1.6254354475        0.5317066458
 H         -0.9582822570       -1.8260563629       -0.7599262891
 H         -0.7957185589        0.2904867053        1.4627139610
 H         -2.5678890758        0.8050419262       -0.2232848855
 H         -1.3958177737        0.5721532437       -1.5260988660
 H         -1.1934268875        1.9050179568       -0.3757347888
  13
  -20.9654051400000       2.788142929671978E-002 !
 C         -1.1036052171       -1.5060279102        0.2632171315
 C         -0.7074399488       -0.0500152175        0.4270604435
 C         -1.5180180568        0.8757205194       -0.4833658501
 N          0.7016221046        0.1514975816        0.0524993000
 O          1.1950937981       -0.5655441296       -0.7901560411
 O          1.2924913325        1.0705447727        0.5872988870
 H         -0.9659882475       -1.8214881356       -0.7675508834
 H         -0.5000736465       -2.1451729842        0.9024643045
 H         -2.1475091879       -1.6270399895        0.5329524179
 H         -0.7946844622        0.2851353751        1.4639268886
 H         -2.5676177136        0.8092116416       -0.2158302708
 H         -1.3998748495        0.5782506736       -1.5227159279
 H         -1.1910793070        1.9065839538       -0.3683546360
  13
  -20.9654050000000       2.787729904479112E-002 !
 C         -1.1037082464       -1.5060505410        0.2629905797
 C         -0.7074312909       -0.0500480898        0.4270517003
 C         -1.5180599792        0.8757853038       -0.4831414487
 N          0.7016546147        0.1515021028        0.0525174196
 O          1.1954491458       -0.5661356588       -0.7894249389
 O          1.2922279055        1.0711645282        0.5865625264
 H         -2.1474144560       -1.6272734010        0.5333189211
 H         -0.9666761710       -1.8212928439       -0.7679513649
 H         -0.4997553248       -2.1454375771        0.9016670767
 H         -0.7946522797        0.2848473550        1.4640368388
 H         -2.5676241653        0.8091239508       -0.2156152297
 H         -1.3998039894        0.5782710071       -1.5224690379
 H         -1.1911877995        1.9066205713       -0.3681338277
  13
  -20.9654045300000       2.786343767346940E-002 !
 C         -1.1037465029       -1.5066072859        0.2599225003
 C         -0.7073886348       -0.0511632225        0.4272379684
 C         -1.5175026176        0.8776440150       -0.4805105475
 N          0.7018216778        0.1506410365        0.0533387243
 O          1.1994911723       -0.5740149756       -0.7802075414
 O          1.2874838384        1.0794939966        0.5768939132
 H         -2.1464844872       -1.6289355202        0.5336465891
 H         -0.9701299129       -1.8188366131       -0.7722960551
 H         -0.4971150391       -2.1480340830        0.8939808868
 H         -0.7947859151        0.2813061447        1.4650346039
 H         -1.1891767371        1.9078265434       -0.3634717613
 H         -2.5670308565        0.8117792212       -0.2126926495
 H         -1.4002630745        0.5823473059       -1.5206091988
  13
  -20.9653827800000       2.722946377189197E-002 !
 C         -1.1275159573       -1.3416046472       -0.4787336476
 C         -0.6812810908       -0.1934652130        0.4296604012
 C         -1.5512118469        1.0396293976        0.2638769010
 N          0.7111855114        0.0987116939        0.0526927073
 O          0.9259696758        0.9157967125       -0.8156352689
 O          1.5834529532       -0.5440812222        0.6054865618
 H         -1.1175175956       -1.0225204971       -1.5183885160
 H         -0.4693339368       -2.1995819318       -0.3628759432
 H         -2.1368286165       -1.6364840585       -0.2105523207
 H         -0.6480288339       -0.5359723797        1.4672031263
 H         -1.5252002884        1.3843392609       -0.7664817373
 H         -1.2060975740        1.8459683409        0.9058336882
 H         -2.5745993871        0.7958697470        0.5291662474
  13
  -20.9654041800000       2.785311985316351E-002 !
 C         -1.1036486744       -1.5059967468        0.2628504965
 C         -0.7074043013       -0.0500260683        0.4270557789
 C         -1.5182298637        0.8758226672       -0.4829409846
 N          0.7016436436        0.1515559223        0.0524211574
 O          1.1956679420       -0.5665860507       -0.7889337369
 O          1.2921012787        1.0714665911        0.5860762374
 H         -0.4988518275       -2.1454358536        0.9006505150
 H         -2.1470241305       -1.6274668156        0.5344018512
 H         -0.9677172629       -1.8208847503       -0.7683815642
 H         -0.7944603422        0.2847119598        1.4640932147
 H         -1.3997124101        0.5788862957       -1.5224199237
 H         -1.1918540081        1.9067304319       -0.3673682897
 H         -2.5678118969        0.8085757248       -0.2156308280
  13
  -20.9653838200000       2.725944690867255E-002 !
 C         -1.1568838788       -1.2560363904       -0.6256276059
 C         -0.6755375195       -0.2399397541        0.4130343548
 C         -1.5316387795        1.0129222104        0.4298106716
 N          0.7137642376        0.0817197935        0.0482224347
 O          0.9320936454        1.0504680573       -0.6457159176
 O          1.5795108471       -0.6799468602        0.4359565819
 H         -2.1635141444       -1.5736373396       -0.3737418291
 H         -1.1671079187       -0.8058955883       -1.6155595917
 H         -0.5059824355       -2.1271439367       -0.6368140822
 H         -0.6262138227       -0.7163982108        1.3958167572
 H         -1.1535775305        1.7296907743        1.1541850912
 H         -2.5495770976        0.7491684079        0.6970598503
 H         -1.5338261360        1.4833180390       -0.5498644906
  13
  -20.9653837200000       2.725656248064584E-002 !
 C         -1.1563250016       -1.2578792749       -0.6229666099
 C         -0.6756239877       -0.2391908721        0.4134617427
 C         -1.5318337835        1.0136312955        0.4266944792
 N          0.7136611638        0.0819911707        0.0482663388
 O          0.9317417580        1.0483140139       -0.6491268043
 O          1.5796775098       -0.6775998961        0.4393877647
 H         -2.1630809627       -1.5749060141       -0.3708468959
 H         -1.1660220442       -0.8101772482       -1.6140041945
 H         -0.5053484438       -2.1289643236       -0.6316575047
 H         -0.6265225474       -0.7132137717        1.3974433686
 H         -1.5334597594        1.4818305164       -0.5540480107
 H         -1.1544270205        1.7320649425        1.1497632072
 H         -2.5498714083        0.7502213086        0.6938308274
  13
  -20.9653833000000       2.724445121564228E-002 !
 C         -1.1476283153       -1.2856773261       -0.5796737302
 C         -0.6772390320       -0.2253665917        0.4189976029
 C         -1.5379430327        1.0239590479        0.3768936446
 N          0.7129204926        0.0865348974        0.0492674134
 O          0.9292297058        1.0113611799       -0.7027846055
 O          1.5817322235       -0.6398747700        0.4934953381
 H         -0.4935639062       -2.1540323456       -0.5505612607
 H         -2.1547105839       -1.5966862069       -0.3214019188
 H         -1.1527252472       -0.8768525417       -1.5873955252
 H         -0.6324329232       -0.6595909351        1.4213129385
 H         -1.1701041154        1.7705591638        1.0759662164
 H         -2.5576349690        0.7670144205        0.6440256543
 H         -1.5315954545        1.4544901106       -0.6209323996
  13
  -20.9653832300000       2.724243319478066E-002 !
 C         -1.1215698058       -1.3623794063       -0.4356767320
 C         -0.6827023171       -0.1810216082        0.4327137548
 C         -1.5552839171        1.0426398158        0.2172238765
 N          0.7104714113        0.1015773293        0.0513477117
 O          0.9256802073        0.8739486923       -0.8568889327
 O          1.5837420162       -0.4986297299        0.6485537229
 H         -0.4622703474       -2.2140688535       -0.2850199824
 H         -2.1318736720       -1.6495038391       -0.1626661119
 H         -1.1063295058       -1.0813928050       -1.4861578994
 H         -0.6528738353       -0.4845006581        1.4824222609
 H         -2.5803627866        0.8042443762        0.4809346280
 H         -1.5207357796        1.3519123317       -0.8240318482
 H         -1.2186267486        1.8713093302        0.8347952749
  13
  -20.9653830100000       2.723609181644140E-002 !
 C         -1.1365384618       -1.3196821235       -0.5210171563
 C         -0.6794523557       -0.2069731834        0.4253544567
 C         -1.5455867197        1.0343350811        0.3108058423
 N          0.7119435376        0.0926732458        0.0503623632
 O          0.9270431021        0.9579443140       -0.7698584358
 O          1.5833696015       -0.5851843572        0.5610785820
 H         -1.1331550069       -0.9634056313       -1.5484902658
 H         -0.4801606225       -2.1830987102       -0.4409851657
 H         -2.1450370795       -1.6206749175       -0.2564307951
 H         -0.6406570198       -0.5876418590        1.4493785012
 H         -2.5674404810        0.7855053464        0.5773917949
 H         -1.5283145236        1.4145731055       -0.7071035907
 H         -1.1903989893        1.8165132858        0.9767536797
  13
  -20.9654030600000       2.782012849625776E-002 !
 C         -1.1037780508       -1.5066824708        0.2578779553
 C         -0.7071904597       -0.0515615088        0.4271083473
 C         -1.5185301960        0.8786865155       -0.4780465238
 N          0.7015918857        0.1514278897        0.0520424084
 O          1.2031812074       -0.5806707379       -0.7726543755
 O          1.2848108700        1.0849158458        0.5701065091
 H         -0.9694162044       -1.8179685262       -0.7745665603
 H         -0.4976945800       -2.1489369857        0.8916147657
 H         -2.1467548345       -1.6292512475        0.5306178617
 H         -0.7934173487        0.2793884036        1.4655285880
 H         -1.4043529895        0.5840374116       -1.5186786061
 H         -1.1886174049        1.9083375253       -0.3609698632
 H         -2.5674244593        0.8137177533       -0.2075488916
  13
  -20.9654011600000       2.776425036722370E-002 !
 C         -1.3119705309       -0.9642318387       -0.9481990100
 C         -0.6582655694       -0.4022990637        0.3021674500
 C         -1.3869307462        0.8374006698        0.8252651366
 N          0.7184774837        0.0319193347        0.0150752749
 O          1.5360591718       -0.0788556744        0.9088489997
 O          0.9671813405        0.5142057935       -1.0682692564
 H         -2.3347689912       -1.2479187812       -0.7232951611
 H         -1.3174851365       -0.2176583850       -1.7380033852
 H         -0.7759070399       -1.8403600288       -1.3037778014
 H         -0.5802029900       -1.1497564771        1.0958398229
 H         -2.4027971740        0.5669515738        1.0947168773
 H         -1.4183349866        1.6047428439        0.0553901285
 H         -0.8851769687        1.2351439466        1.7044054750
  13
  -20.9654009700000       2.775866873097800E-002 !
 C         -1.3205685061       -0.9321942539       -0.9706116736
 C         -0.6568694747       -0.4111488728        0.2911201018
 C         -1.3800013300        0.8108560257        0.8624592031
 N          0.7189656733        0.0305234989        0.0111853997
 O          1.5160873909       -0.0199448999        0.9286797929
 O          0.9871449250        0.4591832108       -1.0897388203
 H         -1.3505437614       -0.1557964857       -1.7304348316
 H         -0.7762694457       -1.7840321227       -1.3700984274
 H         -2.3350414743       -1.2414025523       -0.7417699596
 H         -0.5748837814       -1.1832084652        1.0607283405
 H         -0.8653852002        1.1807080413        1.7462568546
 H         -2.3913618303        0.5298251787        1.1377874188
 H         -1.4245950314        1.6027302924        0.1183790264
  13
  -20.9653828700000       2.723205716242288E-002 !
 C         -1.1308072222       -1.3364224241       -0.4894872253
 C         -0.6806460918       -0.1973174530        0.4283440623
 C         -1.5492544339        1.0383227820        0.2758806199
 N          0.7113857126        0.0960377934        0.0508809253
 O          0.9261726750        0.9277210247       -0.8034609700
 O          1.5837758472       -0.5540908994        0.5948069418
 H         -2.1400001866       -1.6321692742       -0.2216793072
 H         -1.1229821080       -1.0082240457       -1.5262626195
 H         -0.4733309429       -2.1961248123       -0.3828018472
 H         -0.6451639764       -0.5493607767        1.4626472869
 H         -2.5723786403        0.7934544472        0.5412149915
 H         -1.5253708036        1.3923425227       -0.7513193627
 H         -1.2011817207        1.8381877570        0.9243458148
  13
  -20.9653953400000       2.759378430869800E-002 !
 C         -1.3176434767       -0.9437361521       -0.9628151889
 C         -0.6573319407       -0.4082808058        0.2949577471
 C         -1.3820616296        0.8204630655        0.8493751908
 N          0.7187444887        0.0307978663        0.0124550428
 O          1.5231607892       -0.0407900935        0.9220328669
 O          0.9798238838        0.4790271694       -1.0823362100
 H         -2.3355970670       -1.2423598455       -0.7353726974
 H         -1.3377053336       -0.1781450702       -1.7338150684
 H         -0.7771797393       -1.8053026095       -1.3462664019
 H         -0.5765583300       -1.1716672870        1.0731951415
 H         -1.4233229383        1.6033194991        0.0956582204
 H         -0.8709840397        1.2008620292        1.7307395882
 H         -2.3945219135        0.5430772051        1.1243479406
  13
  -20.9653950100000       2.758415012290795E-002 !
 C         -1.3174552803       -0.9434220229       -0.9631248958
 C         -0.6574204268       -0.4084832889        0.2950028301
 C         -1.3816711207        0.8204862201        0.8496656417
 N          0.7186992905        0.0301871446        0.0123137055
 O          1.5228580619       -0.0399957775        0.9222494532
 O          0.9795962253        0.4785746091       -1.0824526626
 H         -1.3376283295       -0.1774390448       -1.7338004399
 H         -0.7764272571       -1.8043153682       -1.3469489471
 H         -2.3353091612       -1.2429172642       -0.7358992342
 H         -0.5765573632       -1.1721199558        1.0729973281
 H         -2.3943821969        0.5441273780        1.1249701270
 H         -1.4223017300        1.6037728742        0.0963972782
 H         -0.8700577351        1.2001309959        1.7308374679
  13
  -20.9653949200000       2.758152320150773E-002 !
 C         -1.3166646340       -0.9468518321       -0.9606666208
 C         -0.6574976317       -0.4074586624        0.2961174408
 C         -1.3826749593        0.8231483803        0.8457382440
 N          0.7186462364        0.0308721727        0.0128361982
 O          1.5250966052       -0.0465819037        0.9201188023
 O          0.9777664130        0.4844259347       -1.0802820480
 H         -0.7764797700       -1.8102592859       -1.3404094214
 H         -2.3351372795       -1.2438522756       -0.7333897388
 H         -1.3351340032       -0.1838096561       -1.7342583364
 H         -0.5771443303       -1.1685088386        1.0766921056
 H         -0.8726875900        1.2064108802        1.7265096891
 H         -2.3955290686        0.5468074240        1.1203478872
 H         -1.4228420013        1.6035335523        0.0893906973
  13
  -20.9653828100000       2.723032820802754E-002 !
 C         -1.1325280293       -1.3313164524       -0.4992479128
 C         -0.6802820269       -0.2002747023        0.4274817030
 C         -1.5481825312        1.0371853611        0.2866373699
 N          0.7115570296        0.0950264070        0.0507574085
 O          0.9264143286        0.9371567318       -0.7932649326
 O          1.5836898881       -0.5638654815        0.5845363837
 H         -1.1260420607       -0.9944882528       -1.5332654828
 H         -0.4753613388       -2.1922169655       -0.4006998392
 H         -2.1415047865       -1.6287210408       -0.2324538769
 H         -0.6437811011       -0.5611417539        1.4587109768
 H         -1.1975989526        1.8318212986        0.9401542893
 H         -2.5708092242        0.7912345356        0.5529005992
 H         -1.5267688118        1.3990008820       -0.7378956036
