  8
    -0.000000 !GC
 C          0.0000000000        0.0000000000        0.0000000000
 C          1.5110540496        0.0000000000        0.0000000000
 Br         2.2301451731        1.8467411742        0.0000000000
 H         -0.4242979100        0.5127331396       -0.8604063624
 H         -0.3871876987       -1.0157765770        0.0201713777
 H         -0.3135841590        0.5140038937        0.9057723167
 H          1.9229702161       -0.4666427500       -0.8924928708
 H          1.9230374136       -0.4657706998        0.8928348730
  8
    -0.000000 !GC
 C          0.0000000000        0.0000000000        0.0000000000
 C          1.5110747408        0.0000000000        0.0000000000
 Br         2.2312808506        1.8463016181        0.0000000000
 H         -0.3881180269       -1.0157748586       -0.0212579063
 H         -0.4233836322        0.5116627879        0.8607829521
 H         -0.3136254039        0.5160186604       -0.9045041689
 H          1.9227460969       -0.4677109800       -0.8919954536
 H          1.9226301482       -0.4659853252        0.8929451538
