  8
  -10.9143835600000       0.335041555907469      !
 C         -2.2305599905        0.4185900199       -0.0000053461
 C         -1.1992006781       -0.6858334772        0.0000095382
 Br         0.6416580219        0.0470964415       -0.0000009417
 H         -2.1281083750        1.0444921229       -0.8833308668
 H         -3.2223171151       -0.0276771617       -0.0003340700
 H         -2.1286036723        1.0445998723        0.8833949435
 H         -1.2591368931       -1.3053982626       -0.8924174483
 H         -1.2592370554       -1.3050381654        0.8927121395
  8
  -10.9143763100000       0.332480981185087      !
 C         -2.2305787083        0.4185914022       -0.0000047841
 C         -1.1992068673       -0.6858300361        0.0000101002
 Br         0.6416655844        0.0470953087       -0.0000003796
 H         -3.2222885240       -0.0277862551       -0.0000212576
 H         -2.1284327381        1.0446115752        0.8833594734
 H         -2.1283670525        1.0445892986       -0.8833785745
 H         -1.2592604263       -1.3052119783       -0.8925776207
 H         -1.2593570843       -1.3051919085        0.8925847282
  8
  -10.9143763000000       0.332477462907444      !
 C         -2.2305635878        0.4185841982       -0.0000046366
 C         -1.1991987781       -0.6858125597        0.0000102473
 Br         0.6416597790        0.0470934800       -0.0000002322
 H         -2.1284226888        1.0446288354        0.8833305751
 H         -2.1282561913        1.0445170114       -0.8834137613
 H         -3.2222802041       -0.0277771900       -0.0000214635
 H         -1.2591682324       -1.3052215478       -0.8925562659
 H         -1.2593948573       -1.3051138165        0.8926124646
