  14
  -13.6652182000000       6.488248836088269E-002 !
 C          1.9386562464       -0.1337487722       -0.0000167108
 C          0.5609543590        0.5180786336        0.0000318013
 C         -0.5609547099       -0.5180830027        0.0000236322
 C         -1.9386512516        0.1337543685       -0.0000235376
 H          2.0641605656       -0.7583267309       -0.8817410809
 H          2.7200487004        0.6222539577       -0.0000800587
 H          2.0641279456       -0.7583745255        0.8817113734
 H          0.4608024870        1.1554316790        0.8816617792
 H          0.4608926061        1.1554058536       -0.8816125387
 H         -0.4607935349       -1.1554341804       -0.8815899726
 H         -0.4609135747       -1.1554453123        0.8816466944
 H         -2.0642492034        0.7584021692        0.8816490193
 H         -2.7200216036       -0.6222476349       -0.0000634148
 H         -2.0641097253        0.7583201014       -0.8817627472
  14
  -13.6652182000000       6.488248836088269E-002 !
 C          1.9386286848       -0.1337577692       -0.0000197852
 C          0.5609486386        0.5181003287        0.0000290555
 C         -0.5609482854       -0.5180981673        0.0000208856
 C         -1.9386291301        0.1337558547       -0.0000266117
 H          2.0641058479       -0.7583533851       -0.8817567961
 H          2.7200075135        0.6222631516       -0.0000016188
 H          2.0641041835       -0.7583968238        0.8816839418
 H          0.4608884282        1.1554605404        0.8816549207
 H          0.4608674196        1.1554677687       -0.8815849068
 H         -0.4608536486       -1.1554952728       -0.8815730453
 H         -0.4609042484       -1.1554290105        0.8816656334
 H         -2.7200076953       -0.6222660273       -0.0000073141
 H         -2.0640863371        0.7583244185       -0.8817820784
 H         -2.0641203650        0.7584216997        0.8816590308
  14
  -13.6652181900000       6.488180178131370E-002 !
 C          1.9386112511       -0.1337559223       -0.0001159876
 C          0.5609350476        0.5181107660        0.0001331578
 C         -0.5609472646       -0.5181273370        0.0001249874
 C         -1.9385939384        0.1337694361       -0.0001228137
 H          2.0641750390       -0.7586335044        0.8814135015
 H          2.0640009032       -0.7581087969       -0.8820311707
 H          2.7199987910        0.6222504573        0.0000154664
 H          0.4610362433        1.1554005703        0.8818171696
 H          0.4607603110        1.1556194790       -0.8813612610
 H         -0.4608260987       -1.1556520400       -0.8813920450
 H         -0.4610660067       -1.1553192782        0.8818981999
 H         -2.0641598548        0.7586256730        0.8814150171
 H         -2.7199666028       -0.6222270812        0.0000630952
 H         -2.0640134442        0.7580809492       -0.8820684758
  14
  -13.6652181900000       6.488180178131370E-002 !
 C          1.9385097825       -0.1337760925       -0.0002025472
 C          0.5608830192        0.5181559836        0.0002382895
 C         -0.5608879774       -0.5181692968        0.0002301169
 C         -1.9384990407        0.1337906910       -0.0002093725
 H          2.0637971871       -0.7578735793       -0.8822645455
 H          2.7199227544        0.6221949307        0.0000160844
 H          2.0641151608       -0.7589424077        0.8810945724
 H          0.4609669995        1.1552441974        0.8821040469
 H          0.4606613488        1.1557556369       -0.8812305870
 H         -0.4606355770       -1.1556690777       -0.8812851976
 H         -0.4610477753       -1.1553663438        0.8820151820
 H         -2.0638280505        0.7579517600       -0.8822281308
 H         -2.0641237080        0.7588611517        0.8811482180
 H         -2.7198972566       -0.6221715839       -0.0000427460
  14
  -13.6652181900000       6.488180178131370E-002 !
 C          1.9386247245       -0.1337530124        0.0000327391
 C          0.5609445536        0.5180936512       -0.0000276250
 C         -0.5609468701       -0.5181035132       -0.0000357929
 C         -1.9386211918        0.1337608752        0.0000259123
 H          2.0640944503       -0.7583125415        0.8817894004
 H          2.0640941847       -0.7584281554       -0.8816445458
 H          2.7200080030        0.6222616873       -0.0000049597
 H          0.4608572100        1.1554879157        0.8815665073
 H          0.4608783137        1.1554058795       -0.8816810678
 H         -0.4609010421       -1.1554452544       -0.8816760971
 H         -0.4608405941       -1.1554591964        0.8815845259
 H         -2.7200100924       -0.6222443269        0.0000077287
 H         -2.0641179921        0.7584185843       -0.8816569981
 H         -2.0640769341        0.7583392310        0.8817723039
  14
  -13.6652181900000       6.488180178131370E-002 !
 C          1.9386342537       -0.1337573390        0.0000429120
 C          0.5609380404        0.5181036630       -0.0000327092
 C         -0.5609519322       -0.5181121506       -0.0000408772
 C         -1.9386119216        0.1337623504        0.0000360856
 H          2.0640662972       -0.7583094767        0.8818504909
 H          2.0640743926       -0.7584794985       -0.8816314049
 H          2.7200308090        0.6222839165       -0.0000685572
 H          0.4608164336        1.1556282334        0.8814560550
 H          0.4608832905        1.1554002959       -0.8816811700
 H         -0.4609383303       -1.1554756596       -0.8816723307
 H         -0.4608766301       -1.1554859252        0.8815650981
 H         -2.0640796299        0.7583945857       -0.8816562189
 H         -2.0640939977        0.7583437379        0.8817871177
 H         -2.7199832092       -0.6222587867       -0.0000135601
  14
  -13.6652181900000       6.488180178131370E-002 !
 C          1.9386216351       -0.1337534485        0.0000327804
 C          0.5609468097        0.5180929603       -0.0000270671
 C         -0.5609487071       -0.5180950141       -0.0000352355
 C         -1.9386203132        0.1337564123        0.0000259537
 H          2.7199981879        0.6222680586        0.0000043430
 H          2.0640781462       -0.7583264265        0.8817848875
 H          2.0640971744       -0.7584147780       -0.8816530936
 H          0.4608520950        1.1554710514        0.8815753471
 H          0.4608916160        1.1554284322       -0.8816647931
 H         -0.4609013530       -1.1554154881       -0.8816835451
 H         -0.4608400291       -1.1554937392        0.8815512582
 H         -2.7199872725       -0.6222745623       -0.0000184677
 H         -2.0641083142        0.7584366146       -0.8816472006
 H         -2.0640733920        0.7583099941        0.8817937883
  14
  -13.6652181900000       6.488180178131370E-002 !
 C          1.9386106693       -0.1337706088        0.0000377211
 C          0.5609398719        0.5181152455       -0.0000332993
 C         -0.5609456869       -0.5180850480       -0.0000414703
 C         -1.9386062907        0.1337437537        0.0000308953
 H          2.7199215088        0.6222597395       -0.0000711445
 H          2.0640805561       -0.7581710564        0.8818820529
 H          2.0642068658       -0.7585853807       -0.8815438570
 H          0.4607457292        1.1556181499        0.8814991097
 H          0.4609412049        1.1553653856       -0.8817474181
 H         -0.4609169510       -1.1554455212       -0.8816782285
 H         -0.4608027987       -1.1554629163        0.8815619826
 H         -2.0641316226        0.7584444072       -0.8816144254
 H         -2.0640899406        0.7582604760        0.8818086925
 H         -2.7199374350       -0.6223231133       -0.0000234414
  14
  -13.6652181200000       6.487699592824300E-002 !
 C          1.9386676269       -0.1337704929       -0.0001192370
 C          0.5609986005        0.5180796422        0.0001659009
 C         -0.5609564847       -0.5180159400        0.0001577237
 C         -1.9386974617        0.1337052109       -0.0001260629
 H          2.7202293094        0.6222650086       -0.0005459193
 H          2.0643154133       -0.7581332727        0.8817848642
 H          2.0636352494       -0.7586028784       -0.8818013638
 H          0.4611396022        1.1556183806        0.8817334166
 H          0.4607575749        1.1553253194       -0.8813216766
 H         -0.4607152871       -1.1554084110       -0.8814364419
 H         -0.4609889893       -1.1554494268        0.8817610984
 H         -2.0643632595        0.7589389594        0.8812940524
 H         -2.7200101777       -0.6224542259       -0.0002662610
 H         -2.0641457775        0.7579193731       -0.8821350945
  14
  -13.6642429300000       2.311662554692531E-002 !
 C          1.5710328513       -0.0342078185        0.5637419466
 C          0.6723217115        0.3645108108       -0.6016233291
 C         -0.6722762456       -0.3644820258       -0.6016194550
 C         -1.5710694991        0.0341811608        0.5637340660
 H          2.5387794829        0.4542140641        0.4771241373
 H          1.1297326512        0.2555507851        1.5134785458
 H          1.7288906956       -1.1105633486        0.5700520593
 H          0.4958986992        1.4421606176       -0.5714355521
 H          1.1894282770        0.1406039187       -1.5377855701
 H         -1.1893526245       -0.1405263380       -1.5377850602
 H         -0.4958898427       -1.4421368401       -0.5714969422
 H         -2.5387511817       -0.4544039471        0.4771661959
 H         -1.7291102671        1.1105343730        0.5700286075
 H         -1.1297309682       -0.2554586325        1.5134989905
  14
  -13.6642429200000       2.311638092926028E-002 !
 C          1.5710065986       -0.0340876165       -0.5638065520
 C          0.6723621090        0.3643140213        0.6017073650
 C         -0.6723847175       -0.3644108325        0.6016896198
 C         -1.5709830584        0.0341762629       -0.5638113890
 H          1.7286053159       -1.1104648508       -0.5705223842
 H          1.1296978410        0.2561185814       -1.5134013702
 H          2.5388831331        0.4540455667       -0.4770617003
 H          1.1895281114        0.1400820903        1.5377589765
 H          0.4961237105        1.4419973938        0.5718514183
 H         -0.4961256258       -1.4420703836        0.5716489572
 H         -1.1895794163       -0.1403337149        1.5377566887
 H         -1.1297120163       -0.2558929287       -1.5134575868
 H         -1.7285604080        1.1105812407       -0.5703760389
 H         -2.5388717483       -0.4539657022       -0.4771886100
  14
  -13.6642429100000       2.311613631422722E-002 !
 C          1.5708142588       -0.0340790519        0.5639356842
 C          0.6724326654        0.3642545967       -0.6018252478
 C         -0.6724225741       -0.3642423099       -0.6018213663
 C         -1.5708274604        0.0340658934        0.5639278030
 H          1.7279442016       -1.1105318066        0.5711859327
 H          2.5388951784        0.4535947923        0.4768961269
 H          1.1297631019        0.2567617195        1.5134441740
 H          0.4963704799        1.4419692309       -0.5722064131
 H          1.1896398458        0.1397212542       -1.5377795345
 H         -1.1896517587       -0.1396146841       -1.5377367761
 H         -0.4963569166       -1.4419691958       -0.5723046042
 H         -2.5389010425       -0.4536349314        0.4769195548
 H         -1.7279792492        1.1105181047        0.5712355718
 H         -1.1296867769       -0.2568040969        1.5133862732
  14
  -13.6642429000000       2.311589170173919E-002 !
 C          1.5712018467       -0.0336875098        0.5638088313
 C          0.6721482665        0.3638902913       -0.6017020133
 C         -0.6725703040       -0.3648376851       -0.6016980522
 C         -1.5707913153        0.0345850662        0.5638009371
 H          2.5390608337        0.4542677460        0.4766986415
 H          1.1300180892        0.2572943575        1.5132762519
 H          1.7286069278       -1.1101344068        0.5712595919
 H          0.4959102491        1.4415150537       -0.5724575590
 H          1.1890912675        0.1391940373       -1.5376907610
 H         -1.1899605789       -0.1412646599       -1.5378324316
 H         -0.4961715719       -1.4424797258       -0.5710701504
 H         -1.7285834006        1.1110044432        0.5698266897
 H         -1.1292972460       -0.2548680821        1.5135795227
 H         -2.5385374615       -0.4539348939        0.4775359505
  14
  -13.6642429000000       2.311589170173919E-002 !
 C          1.5707308334       -0.0342055639       -0.5639630458
 C          0.6725530285        0.3643534567        0.6018702338
 C         -0.6723776236       -0.3640096886        0.6018524494
 C         -1.5708994213        0.0338797332       -0.5639678765
 H          2.5389168569        0.4532824230       -0.4770263951
 H          1.7276331460       -1.1107088422       -0.5712491314
 H          1.1295846680        0.2568030475       -1.5133915452
 H          1.1899129828        0.1398864941        1.5377616239
 H          0.4965158252        1.4420666473        0.5722156996
 H         -0.4963271630       -1.4417358298        0.5726268332
 H         -1.1895789695       -0.1391517960        1.5377137949
 H         -2.5390687768       -0.4536544545       -0.4768754867
 H         -1.1297696184       -0.2573506401       -1.5133231124
 H         -1.7279001839        1.1103492066       -0.5715954688
  14
  -13.6642428900000       2.311564709188308E-002 !
 C          1.5712899867       -0.0344511647       -0.5635175910
 C          0.6722216497        0.3649034610        0.6013785452
 C         -0.6720841340       -0.3646685121        0.6013607734
 C         -1.5714122891        0.0342248589       -0.5635224236
 H          1.1298342218        0.2540275994       -1.5135594365
 H          2.5385074548        0.4550136555       -0.4772208242
 H          1.7303129354       -1.1106561836       -0.5690125364
 H          1.1891042982        0.1413222931        1.5377041081
 H          0.4957678972        1.4425815706        0.5709220879
 H         -0.4955924035       -1.4423490052        0.5712067359
 H         -1.1888669284       -0.1408488805        1.5376741833
 H         -1.7299361094        1.1105108641       -0.5695879077
 H         -2.5388546931       -0.4547145574       -0.4766258759
 H         -1.1304579559       -0.2549903481       -1.5135419969
  14
  -13.6642428900000       2.311564709188308E-002 !
 C          1.5707355704       -0.0341513139        0.5639439215
 C          0.6724648466        0.3643415739       -0.6018318663
 C         -0.6723800212       -0.3641761633       -0.6018279978
 C         -1.5708175558        0.0339963183        0.5639360426
 H          2.5388684923        0.4534448847        0.4769824422
 H          1.1295560801        0.2567590272        1.5133925472
 H          1.7277683968       -1.1106353958        0.5711625751
 H          0.4964390024        1.4420721392       -0.5722550071
 H          1.1897466909        0.1397576159       -1.5377283560
 H         -1.1895957464       -0.1394723184       -1.5377258026
 H         -0.4963615919       -1.4419084009       -0.5723958001
 H         -1.1296806484       -0.2570517362        1.5133521345
 H         -2.5389743590       -0.4535604372        0.4768885336
 H         -1.7278001583        1.1104705143        0.5713285866
  14
  -13.6642428800000       2.311540248457195E-002 !
 C          1.5709508241       -0.0342950359       -0.5637779880
 C          0.6723717949        0.3646116088        0.6016565176
 C         -0.6722409161       -0.3643812232        0.6016387442
 C         -1.5710703802        0.0340844009       -0.5637828202
 H          1.1297818027        0.2558525765       -1.5134416602
 H          2.5387423079        0.4539445276       -0.4769367937
 H          1.7287345860       -1.1106725068       -0.5705692013
 H          1.1894210235        0.1402588671        1.5377095653
 H          0.4963169778        1.4423698885        0.5719310903
 H         -0.4961511691       -1.4421625881        0.5724199803
 H         -1.1892815244       -0.1396206861        1.5375738711
 H         -2.5390524834       -0.4537138948       -0.4763996482
 H         -1.1302228717       -0.2570227863       -1.5132648347
 H         -1.7284235728        1.1105312525       -0.5714826774
  14
  -13.6642428700000       2.311515787989268E-002 !
 C          1.5717001500       -0.0342893054       -0.5634696293
 C          0.6722646424        0.3645853161        0.6013430586
 C         -0.6722486108       -0.3645676936        0.6013253078
 C         -1.5717017700        0.0342583164       -0.5634744665
 H          1.7306312303       -1.1104451668       -0.5688649743
 H          1.1300733742        0.2539921478       -1.5135186535
 H          2.5389558405        0.4553630989       -0.4772679922
 H          1.1890173176        0.1413670295        1.5378292815
 H          0.4956002415        1.4421646680        0.5707011611
 H         -0.4954733200       -1.4421454122        0.5706555445
 H         -1.1890912299       -0.1411656188        1.5377682548
 H         -1.7305189396        1.1104171262       -0.5690402813
 H         -2.5390432846       -0.4551532947       -0.4769166321
 H         -1.1303229608       -0.2542353007       -1.5136846758
  14
  -13.6642428600000       2.311491327775834E-002 !
 C          1.5717842914       -0.0343530265       -0.5632793111
 C          0.6720547641        0.3648499054        0.6011382082
 C         -0.6721025061       -0.3650194668        0.6011204741
 C         -1.5717361089        0.0345051829       -0.5632841506
 H          1.7314540727       -1.1104315662       -0.5673063724
 H          1.1303389973        0.2526744501       -1.5138003654
 H          2.5386939298        0.4558511618       -0.4772831290
 H          1.1887703982        0.1423386695        1.5378355549
 H          0.4951115763        1.4423547310        0.5696272631
 H         -0.4951016203       -1.4425228194        0.5695127716
 H         -1.1888347823       -0.1426279084        1.5378516160
 H         -2.5385530379       -0.4558795455       -0.4775570599
 H         -1.1301381024       -0.2521020825       -1.5138659644
 H         -1.7317466797        1.1105523100       -0.5670071188
  14
  -13.6642428500000       2.311466867825581E-002 !
 C          1.5708849468       -0.0341693871       -0.5638042640
 C          0.6722956258        0.3644660819        0.6016948047
 C         -0.6722980572       -0.3644861116        0.6016770522
 C         -1.5708821609        0.0341858451       -0.5638090986
 H          1.1296809557        0.2559627560       -1.5134717344
 H          2.5386801322        0.4540991931       -0.4769796927
 H          1.7286355437       -1.1105479291       -0.5705153814
 H          1.1893769637        0.1401866366        1.5377672789
 H          0.4960511313        1.4421651073        0.5718438880
 H         -0.4960587011       -1.4421906163        0.5718097101
 H         -1.1893859315       -0.1402202039        1.5377490571
 H         -1.1297445302       -0.2560208253       -1.5134770231
 H         -1.7285149565        1.1105808717       -0.5705475050
 H         -2.5387248304       -0.4539724291       -0.4769253786
  14
  -13.6642428500000       2.311466867825581E-002 !
 C          1.5714514473       -0.0346153907       -0.5634460072
 C          0.6723408081        0.3650427018        0.6013125318
 C         -0.6720253829       -0.3644388162        0.6012947302
 C         -1.5717423912        0.0340522303       -0.5634508362
 H          2.5384583654        0.4553445819       -0.4776455101
 H          1.7309449969       -1.1107474072       -0.5682571285
 H          1.1297211068        0.2530210216       -1.5136070032
 H          1.1892699555        0.1419329237        1.5377430140
 H          0.4957888005        1.4426733345        0.5704074674
 H         -0.4954185305       -1.4421047723        0.5714545312
 H         -1.1888282264       -0.1404547856        1.5375354492
 H         -1.7302158775        1.1103237306       -0.5701019838
 H         -2.5392255655       -0.4548559011       -0.4764055114
 H         -1.1307867469       -0.2556180116       -1.5132972294
  14
  -13.6642428400000       2.311442408129815E-002 !
 C          1.5709056510       -0.0341940366        0.5637904735
 C          0.6722886681        0.3645032101       -0.6016661873
 C         -0.6722799323       -0.3644945499       -0.6016623105
 C         -1.5709133421        0.0341846631        0.5637825936
 H          1.1297270803        0.2558711772        1.5134891375
 H          1.7286757559       -1.1105697465        0.5704328633
 H          2.5386888422        0.4540952512        0.4769648525
 H          0.4960170061        1.4421971171       -0.5717418274
 H          1.1893537494        0.1402944731       -1.5377645159
 H         -1.1893516403       -0.1402668438       -1.5377514047
 H         -0.4960068585       -1.4421941485       -0.5717605914
 H         -2.5386931063       -0.4541088520        0.4769474024
 H         -1.7286859633        1.1105609803        0.5704143450
 H         -1.1297373146       -0.2558709077        1.5134800138
  14
  -13.6642428300000       2.311417948692879E-002 !
 C          1.5711033182       -0.0342305054        0.5637159938
 C          0.6723321118        0.3645281550       -0.6015825482
 C         -0.6722947513       -0.3644262283       -0.6015786800
 C         -1.5711824746        0.0341522786        0.5637081140
 H          1.7293824046       -1.1104580065        0.5697021167
 H          2.5387593920        0.4543548120        0.4771046809
 H          1.1299878101        0.2548946614        1.5135731890
 H          0.4959890327        1.4421905311       -0.5713008304
 H          1.1894825715        0.1406890018       -1.5377552412
 H         -1.1892352431       -0.1404025804       -1.5378014837
 H         -0.4959806947       -1.4421071666       -0.5715102597
 H         -1.1299181501       -0.2557392267        1.5133937897
 H         -2.5389502469       -0.4542054546        0.4769073483
 H         -1.7290188321        1.1105010159        0.5701787769
  14
  -13.6642428100000       2.311369030599831E-002 !
 C          1.5717855689       -0.0345951147        0.5631813673
 C          0.6720514932        0.3651895855       -0.6010223447
 C         -0.6719317345       -0.3649822048       -0.6010185015
 C         -1.5719045970        0.0344088232        0.5631734906
 H          1.1303238065        0.2520334634        1.5138100320
 H          1.7317704835       -1.1106716105        0.5668841810
 H          2.5385434970        0.4557991248        0.4773416630
 H          0.4947768789        1.4426579204       -0.5691906773
 H          1.1887364136        0.1430125682       -1.5378163403
 H         -1.1885467301       -0.1425205315       -1.5377681572
 H         -0.4945860231       -1.4424465811       -0.5695285431
 H         -1.7323014018        1.1104100219        0.5669494697
 H         -1.1302199727       -0.2520727366        1.5137483516
 H         -2.5385056582       -0.4564529405        0.4774528113
  14
  -13.6642428000000       2.311344571943712E-002 !
 C          1.5719258892       -0.0343378682        0.5633736448
 C          0.6723089260        0.3646177017       -0.6012366377
 C         -0.6723316528       -0.3644041973       -0.6012327845
 C         -1.5719068038        0.0341675098        0.5633657677
 H          1.7312372170       -1.1104987930        0.5681120330
 H          2.5389722956        0.4557491804        0.4776159253
 H          1.1301371426        0.2532131519        1.5135179013
 H          0.4953795360        1.4421334058       -0.5700194929
 H          1.1892405214        0.1416297745       -1.5377504219
 H         -1.1893114685       -0.1418272749       -1.5377930933
 H         -0.4956526386       -1.4418604070       -0.5697285869
 H         -1.7308898747        1.1104097653        0.5676481258
 H         -1.1301193116       -0.2535596072        1.5135576715
 H         -2.5389500291       -0.4559033281        0.4772472920
  14
  -13.6642427900000       2.311320113542068E-002 !
 C          1.5704355357       -0.0346337739       -0.5640038112
 C          0.6728154093        0.3647869314        0.6019284257
 C         -0.6722200678       -0.3634873774        0.6019105575
 C         -1.5710383080        0.0333870137       -0.5640086282
 H          2.5387632599        0.4523505062       -0.4774645246
 H          1.7267802593       -1.1112186474       -0.5703931187
 H          1.1297478576        0.2558011785       -1.5137609545
 H          1.1903934066        0.1416894453        1.5381385460
 H          0.4969033098        1.4423934254        0.5707527616
 H         -0.4960833067       -1.4412877198        0.5735318397
 H         -1.1895714795       -0.1375685141        1.5374105404
 H         -1.1292970422       -0.2581110110       -1.5130295826
 H         -1.7284173157        1.1097213787       -0.5721084117
 H         -2.5391304024       -0.4543991391       -0.4766347620
  14
  -13.6642427100000       2.311124455663447E-002 !
 C          1.5715931039       -0.0349516549        0.5632045264
 C          0.6723129924        0.3655057704       -0.6010579434
 C         -0.6718162362       -0.3644620842       -0.6010541720
 C         -1.5720570287        0.0339514946        0.5631966615
 H          1.1290151627        0.2503227031        1.5137221942
 H          1.7322785322       -1.1109162728        0.5659872644
 H          2.5380139461        0.4564666482        0.4785452644
 H          0.4951217801        1.4429266702       -0.5686248163
 H          1.1893823779        0.1442227480       -1.5378426725
 H         -1.1886232454       -0.1413669195       -1.5374523030
 H         -0.4945873061       -1.4419435301       -0.5705128355
 H         -1.1301094334       -0.2539894650        1.5132332973
 H         -2.5389102288       -0.4563137069        0.4770413214
 H         -1.7319728088        1.1100724656        0.5680832553
