  14
        -13.66521820
 C          1.9386562464       -0.1337487722       -0.0000167108
 C          0.5609543590        0.5180786336        0.0000318013
 C         -0.5609547099       -0.5180830027        0.0000236322
 C         -1.9386512516        0.1337543685       -0.0000235376
 H          2.0641605656       -0.7583267309       -0.8817410809
 H          2.7200487004        0.6222539577       -0.0000800587
 H          2.0641279456       -0.7583745255        0.8817113734
 H          0.4608024870        1.1554316790        0.8816617792
 H          0.4608926061        1.1554058536       -0.8816125387
 H         -0.4607935349       -1.1554341804       -0.8815899726
 H         -0.4609135747       -1.1554453123        0.8816466944
 H         -2.0642492034        0.7584021692        0.8816490193
 H         -2.7200216036       -0.6222476349       -0.0000634148
 H         -2.0641097253        0.7583201014       -0.8817627472
