  13
  -20.9624765700000       3.086433618711227E-002 !
 C         -1.9883491147        0.6401320646        0.5768510182
 C         -1.4902738991       -0.5746451110       -0.1965183415
 C         -0.2165345390       -0.2598628874       -0.9878165043
 N          0.8881177028       -0.0169410204       -0.0670386995
 O          1.4205920686        1.0745661489       -0.0827351846
 O          1.2162076534       -0.9166662347        0.6789849875
 H         -2.1943997817        1.4677513583       -0.0973341156
 H         -2.9026498971        0.3950795774        1.1094439832
 H         -1.2504013018        0.9693131115        1.3065337653
 H         -2.2541887929       -0.9013811293       -0.9007909636
 H         -1.2806873427       -1.3959785452        0.4908655668
 H          0.0542859681       -1.1221117612       -1.6001341936
 H         -0.3365107342        0.6325494785       -1.6026313816
  13
  -20.9624758400000       3.084050324218306E-002 !
 C         -1.9879923532        0.6416399303        0.5757903341
 C         -1.4902004231       -0.5744026126       -0.1957355553
 C         -0.2164699411       -0.2610579723       -0.9876943887
 N          0.8881023117       -0.0173440216       -0.0670421284
 O          1.4185086686        1.0751791124       -0.0813517511
 O          1.2178569691       -0.9174812795        0.6777865244
 H         -2.9017999820        0.3973625601        1.1096031276
 H         -1.2494541439        0.9724323741        1.3041616556
 H         -2.1948317792        1.4678822303       -0.0998355127
 H         -2.2542596150       -0.9019266765       -0.8994664555
 H         -1.2808217876       -1.3948087685        0.4928487184
 H          0.0541809572       -1.1241870279       -1.5988291348
 H         -0.3363577915        0.6306585864       -1.6035618701
  13
  -20.9624744500000       3.079517357440779E-002 !
 C         -2.0039031802        0.1816673595        0.8021371992
 C         -1.4592999249        0.2831121943       -0.6173661968
 C         -0.2291023536       -0.6080233678       -0.8177874927
 N          0.8850661918       -0.0947968396       -0.0288817035
 O          1.2852207173        1.0256409341       -0.2699940324
 O          1.3530326164       -0.8067531345        0.8367489389
 H         -2.2754547838       -0.8443018301        1.0379169299
 H         -1.2657479635        0.5157046840        1.5294097088
 H         -2.8875690734        0.8040611448        0.9089211984
 H         -1.1834553532        1.3154088897       -0.8393776558
 H         -2.2230865416       -0.0297857739       -1.3280315344
 H         -0.4185915344       -1.6319903023       -0.4946958955
 H          0.0746986736       -0.5793412538       -1.8660001188
  13
  -20.9624740500000       3.078214141526666E-002 !
 C         -2.0036849909        0.1880742937        0.8009780875
 C         -1.4594810780        0.2812945022       -0.6192909261
 C         -0.2297666381       -0.6112604214       -0.8149383285
 N          0.8848807599       -0.0956827621       -0.0280815961
 O          1.2799528539        1.0269731879       -0.2670877075
 O          1.3589262740       -0.8087399093        0.8333512031
 H         -1.2653105851        0.5270658092        1.5257345131
 H         -2.8877020801        0.8105286985        0.9045044438
 H         -2.2743699395       -0.8366204715        1.0431966377
 H         -1.1832222404        1.3122015272       -0.8470383456
 H         -2.2235967856       -0.0352044028       -1.3279841517
 H         -0.4196054765       -1.6338326782       -0.4876448593
 H          0.0747182651       -0.5877952153       -1.8631474067
  13
  -20.9624731100000       3.075153754562518E-002 !
 C         -1.9823816560        0.7598962671        0.4347924005
 C         -1.4938987718       -0.5967150087       -0.0580461044
 C         -0.2242323076       -0.4679207307       -0.9057836677
 N          0.8875435926       -0.0352204605       -0.0666219807
 O          1.2125120090       -0.7481621513        0.8605844816
 O          1.4293923735        1.0197577039       -0.3286085201
 H         -1.2384905348        1.2361067762        1.0713794773
 H         -2.1893596304        1.4218962810       -0.4023365358
 H         -2.8943384763        0.6415421917        1.0126680990
 H         -2.2635862676       -1.0651298304       -0.6699889100
 H         -1.2829576188       -1.2495741073        0.7906699754
 H          0.0398586775       -1.4443692248       -1.3165780350
 H         -0.3449151376        0.2691403706       -1.7001873885
  13
  -20.9624719500000       3.071381300656731E-002 !
 C         -2.0002843251        0.1531647997        0.8085282708
 C         -1.4588607576        0.2890323795       -0.6091724052
 C         -0.2255606696       -0.5935653858       -0.8324369826
 N          0.8853633047       -0.0907497594       -0.0332378122
 O          1.3079212875        1.0199087138       -0.2822727138
 O          1.3233575614       -0.7964284600        0.8528185007
 H         -2.8835259788        0.7732327428        0.9307698051
 H         -2.2720167040       -0.8780634715        1.0201238741
 H         -1.2613832288        0.4695462287        1.5429745123
 H         -1.1867168155        1.3269830633       -0.8088392513
 H         -2.2225380506       -0.0106676893       -1.3257516858
 H         -0.4123010820       -1.6241764046       -0.5297963567
 H          0.0752960347       -0.5394250699       -1.8802081340
  13
  -20.9624624400000       3.040627664012705E-002 !
 C         -1.9840640820        0.6866990572       -0.5308106842
 C         -1.4908585100       -0.5852962945        0.1478029798
 C         -0.2189917516       -0.3356900216        0.9654284277
 N          0.8883833134       -0.0242461922        0.0690034213
 O          1.4093330165        1.0695468048        0.1561640016
 O          1.2261452967       -0.8701397314       -0.7337491456
 H         -1.2429061699        1.0703775728       -1.2299125566
 H         -2.8965203665        0.4852006843       -1.0843187898
 H         -2.1916526076        1.4598909796        0.2047742289
 H         -1.2807677951       -1.3519053967       -0.5999898795
 H         -2.2576153496       -0.9634914959        0.8225996685
 H         -0.3403087650        0.5070994327        1.6464732930
 H          0.0476891270       -1.2437045813        1.5095028622
  13
  -20.9624707800000       3.067581013461380E-002 !
 C         -1.9813842237        0.6702285564        0.5563854499
 C         -1.4903355679       -0.5684601980       -0.1825274815
 C         -0.2147908227       -0.2847761328       -0.9848674136
 N          0.8877438628       -0.0253487055       -0.0671107353
 O          1.3782938626        1.0855410838       -0.0546800554
 O          1.2512445242       -0.9314242553        0.6548370310
 H         -1.2397538725        1.0201529498        1.2724493940
 H         -2.1883320826        1.4774482789       -0.1417778095
 H         -2.8940159577        0.4437556130        1.0999974871
 H         -2.2565776992       -0.9099957254       -0.8772209563
 H         -1.2852938818       -1.3722237070        0.5268114834
 H          0.0486572262       -1.1656881954       -1.5727665935
 H         -0.3318167216        0.5931950618       -1.6205476052
  13
  -20.9624689700000       3.061711198466508E-002 !
 C         -2.0043963814       -0.0097029319        0.8132162886
 C         -1.4726722663       -0.2487515193       -0.5945281223
 C         -0.1967133615        0.5566527297       -0.8648916278
 N          0.8882658766        0.0444507167       -0.0364311010
 O          1.2539074839       -1.0984728402       -0.2211588076
 O          1.3644243979        0.7773183577        0.8069240866
 H         -2.9188336269       -0.5749027257        0.9682794486
 H         -1.2815024134       -0.3242094051        1.5641243554
 H         -2.2210595773        1.0442398673        0.9687800786
 H         -2.2217574328        0.0503114343       -1.3265123926
 H         -1.2540700284       -1.3083795392       -0.7378490285
 H          0.1000460746        0.4289189072       -1.9074296508
 H         -0.3310006999        1.6107543496       -0.6209620846
  13
  -20.9624688100000       3.061192860431694E-002 !
 C         -2.0040451136        0.0414818836        0.8146524214
 C         -1.4739577317       -0.2814385498       -0.5768816558
 C         -0.1972724464        0.5047337914       -0.8956306308
 N          0.8884103691        0.0408186503       -0.0400008300
 O          1.2489322773       -1.1129055680       -0.1537924211
 O          1.3705538742        0.8232356088        0.7539400546
 H         -2.2191117831        1.1030759291        0.9077112274
 H         -2.9190611994       -0.5121934773        1.0040076344
 H         -1.2807097509       -0.2289758983        1.5820782901
 H         -2.2234811416       -0.0254635812       -1.3245608860
 H         -1.2567758100       -1.3479851992       -0.6571861254
 H          0.0980226388        0.3156288639       -1.9292553634
 H         -0.3295965896        1.5716038520       -0.7141550742
  13
  -20.9624633100000       3.043428244529202E-002 !
 C         -1.9872961272        0.6724547458       -0.5417430891
 C         -1.4910298866       -0.5850937244        0.1611546915
 C         -0.2182456302       -0.3158011398        0.9705558160
 N          0.8877276525       -0.0206415153        0.0667705919
 O          1.4201545584        1.0682571242        0.1456972333
 O          1.2182290563       -0.8770391271       -0.7277476881
 H         -2.1930279359        1.4605226311        0.1784325235
 H         -1.2484389576        1.0419883735       -1.2507897870
 H         -2.9013132441        0.4592069964       -1.0881819871
 H         -1.2813058155       -1.3664690722       -0.5713351570
 H         -2.2559876732       -0.9504579213        0.8448862388
 H         -0.3391396157        0.5402966502        1.6347767094
 H          0.0517904098       -1.2113993763        1.5333206855
  13
  -20.9624632700000       3.043299425653562E-002 !
 C         -1.9905021197        0.6619504572       -0.5492954400
 C         -1.4903360222       -0.5843576526        0.1708507452
 C         -0.2171528101       -0.3015349017        0.9746954133
 N          0.8884390887       -0.0187653139        0.0662518439
 O          1.4276976441        1.0673165891        0.1374754717
 O          1.2114219258       -0.8815272343       -0.7243882918
 H         -2.9044958469        0.4391125516       -1.0919949910
 H         -2.1975928140        1.4593629605        0.1600784550
 H         -1.2531560799        1.0234075593       -1.2640570923
 H         -1.2797932378       -1.3751463842       -0.5512018042
 H         -2.2537214630       -0.9420492442        0.8604526535
 H         -0.3380460916        0.5638876275        1.6268732888
 H          0.0547268862       -1.1883872959        1.5504769764
  13
  -20.9624433400000       2.979788846298410E-002 !
 C         -1.9757638942        0.8048538496        0.4390015034
 C         -1.4920851305       -0.5332474810       -0.1037677452
 C         -0.2165238910       -0.3877771712       -0.9498249628
 N          0.8909634828       -0.0642681718       -0.0633109144
 O          1.1906788696        1.1032453455        0.0833564737
 O          1.4359983147       -0.9796056335        0.5216614357
 H         -1.2084737293        1.2893081373        1.0400687370
 H         -2.2409882500        1.4742763499       -0.3752491464
 H         -2.8522345006        0.6585153703        1.0636530140
 H         -2.2617588520       -0.9698970652       -0.7392399342
 H         -1.2941470133       -1.2264976203        0.7161386461
 H          0.0131340331       -1.3352788622       -1.4373967768
 H         -0.3274618267        0.4243940025       -1.6683114960
  13
  -20.9624431400000       2.979158273594302E-002 !
 C         -1.9757564464        0.8044204503        0.4395232558
 C         -1.4920132103       -0.5333909088       -0.1041045123
 C         -0.2164441992       -0.3874387791       -0.9500211096
 N          0.8909108121       -0.0641490345       -0.0633199030
 O          1.1912787632        1.1032695551        0.0828077015
 O          1.4352840044       -0.9795226849        0.5222054055
 H         -2.8522905282        0.6578579348        1.0640258613
 H         -1.2085671201        1.2885938458        1.0409347286
 H         -2.2408981586        1.4743827499       -0.3742910921
 H         -2.2615679310       -0.9698483819       -0.7398629927
 H         -1.2937973043       -1.2270890910        0.7153299265
 H          0.0134101618       -1.3346660589       -1.4380582253
 H         -0.3275665265        0.4250739968       -1.6680810247
  13
  -20.9624404700000       2.970752898495470E-002 !
 C         -1.9740133813        0.8164694393        0.4284116312
 C         -1.4918433058       -0.5291511050       -0.0968559844
 C         -0.2169090751       -0.3973775311       -0.9466091520
 N          0.8916649413       -0.0679659110       -0.0640179865
 O          1.1722394358        1.1023824710        0.0970992864
 O          1.4523928809       -0.9813596433        0.5093240252
 H         -2.2457738633        1.4723798136       -0.3946342927
 H         -2.8458823261        0.6788415174        1.0615354913
 H         -1.2031560962        1.3115859923        1.0163042173
 H         -2.2622446778       -0.9745346270       -0.7253788830
 H         -1.2936780315       -1.2111594933        0.7323478299
 H          0.0100114924       -1.3502220907       -1.4247489716
 H         -0.3276464590        0.4080264571       -1.6727362505
  13
  -20.9624385500000       2.964723245944529E-002 !
 C         -1.9558324347        0.9116171700       -0.2990213497
 C         -1.4918155525       -0.5289418493       -0.1297318117
 C         -0.2637787326       -0.6379350304        0.7890840856
 N          0.8868347693       -0.0865268142        0.0897691121
 O          1.1834205443        1.0734841336        0.2916728159
 O          1.4712221191       -0.8053802084       -0.6968473271
 H         -2.7996329109        0.9534730860       -0.9817234704
 H         -2.2646811805        1.3285036080        0.6561139749
 H         -1.1626923341        1.5385532183       -0.7020840938
 H         -1.2461250346       -0.9652548670       -1.0999693901
 H         -2.2908003105       -1.1204188600        0.3160308190
 H         -0.4187629377       -0.0602476750        1.7003207286
 H         -0.0533912501       -1.6862073018        1.0015841895
  13
  -20.9624360700000       2.956953054126631E-002 !
 C         -1.9554836897        0.9314765071       -0.2683704600
 C         -1.4902001215       -0.5146830882       -0.1644383231
 C         -0.2711187282       -0.6668853007        0.7609388544
 N          0.8875725230       -0.0946388478        0.0930406659
 O          1.1550074022        1.0715942923        0.3000986511
 O          1.5041200262       -0.8013671429       -0.6802912542
 H         -2.2890426809        1.2959268376        0.6997504104
 H         -1.1547602293        1.5807568578       -0.6175797381
 H         -2.7823686321        1.0076779516       -0.9685507316
 H         -1.2345993863       -0.9033838301       -1.1521963697
 H         -2.2922658950       -1.1285943077        0.2438873990
 H         -0.4335355529       -0.1232475358        1.6916346225
 H         -0.0668950763       -1.7232901800        0.9350267066
  13
  -20.9624320100000       2.944276432909026E-002 !
 C         -2.0101361428       -0.0643167722        0.8300973980
 C         -1.4586346777        0.3367426502       -0.5316083036
 C         -0.2093634407       -0.4745480616       -0.9124725764
 N          0.8911440643       -0.0557822529       -0.0579017007
 O          1.5004695181        0.9490275732       -0.3680424879
 O          1.1222731511       -0.7023693998        0.9435792745
 H         -2.3228943687       -1.1053172073        0.8244793635
 H         -1.2639417936        0.0612570632        1.6124828020
 H         -2.8690083009        0.5517155477        1.0803268617
 H         -1.2052023456        1.3986589472       -0.5407317727
 H         -2.2127795933        0.1606417279       -1.2979016808
 H         -0.3825122497       -1.5382834035       -0.7492462361
 H          0.0700125440       -0.2602854863       -1.9441919108
  13
  -20.9624319200000       2.943996040628121E-002 !
 C         -2.0115702049       -0.0723161746        0.8296746546
 C         -1.4583042224        0.3392862254       -0.5281176088
 C         -0.2093455967       -0.4700957120       -0.9143196031
 N          0.8915654777       -0.0547196998       -0.0586914003
 O          1.5072628154        0.9456547999       -0.3707309221
 O          1.1162132416       -0.6987324276        0.9459353720
 H         -1.2645641900        0.0417691764        1.6130565800
 H         -2.8673082386        0.5455403670        1.0860948478
 H         -2.3294854006       -1.1115943109        0.8137951518
 H         -1.2040148436        1.4010790259       -0.5284781119
 H         -2.2118131701        0.1702659513       -1.2965824117
 H         -0.3827706356       -1.5344716355       -0.7556968614
 H          0.0690710055       -0.2512031732       -1.9452712000
  13
  -20.9624266100000       2.927500072817538E-002 !
 C         -2.0143171905       -0.0993075530        0.8287931274
 C         -1.4575113600        0.3466826821       -0.5164333431
 C         -0.2088335832       -0.4548873374       -0.9213774727
 N          0.8927762358       -0.0511051853       -0.0616241230
 O          1.5298586691        0.9340279958       -0.3794916613
 O          1.0939895682       -0.6854007916        0.9540688206
 H         -2.8589688525        0.5238656522        1.1078857352
 H         -2.3491723736       -1.1321520975        0.7802132905
 H         -1.2630579471       -0.0227023752        1.6127015175
 H         -1.2016122763        1.4077761390       -0.4880041614
 H         -2.2092437229        0.2001169858       -1.2913201349
 H         -0.3813647846       -1.5217900514       -0.7793780986
 H          0.0669859516       -0.2187482479       -1.9490930690
  13
  -20.9623049700000       2.573919979886629E-002 !
 C         -2.0603629757        0.3901528077        0.7126523183
 C         -1.4878721988       -0.5937371732       -0.3019012095
 C         -0.2388444647       -0.0429938420       -0.9796049429
 N          0.8991852415        0.0433047636       -0.0666324255
 O          1.7265909876        0.9070697247       -0.2891491047
 O          0.9847417707       -0.7483425668        0.8469845595
 H         -1.3498077316        0.5728728623        1.5163922152
 H         -2.2996442880        1.3388576587        0.2383454524
 H         -2.9680136279       -0.0121774772        1.1528014768
 H         -2.2294510231       -0.7987476582       -1.0730003427
 H         -1.2411256677       -1.5320192431        0.1963599431
 H          0.0757820359       -0.7078088760       -1.7898498306
 H         -0.3938256716        0.9559650352       -1.3912966293
  13
  -20.9622999700000       2.560337399883351E-002 !
 C         -1.9646541500        0.9502355226       -0.4013623365
 C         -1.5520923295       -0.2618996176        0.4265743167
 C         -0.3162493009       -0.9447270812       -0.1463214787
 N          0.8930107754       -0.1382877295        0.0079972205
 O          0.9717634500        0.6384601440        0.9347702237
 O          1.7829480440       -0.3109779923       -0.8037657202
 H         -1.1859233833        1.7101408900       -0.3865626659
 H         -2.1543786164        0.6664157696       -1.4337044092
 H         -2.8701321910        1.3905333356        0.0055383507
 H         -2.3635335199       -0.9884500576        0.4417576722
 H         -1.3483226041        0.0476999090        1.4522233936
 H         -0.1214746190       -1.8820623519        0.3837700941
 H         -0.4179427633       -1.1656373917       -1.2104816414
  13
  -20.9622999900000       2.560391587177820E-002 !
 C         -1.9633516350        0.9609295292       -0.3907201103
 C         -1.5546767077       -0.2665021901        0.4165471258
 C         -0.3175776050       -0.9403856701       -0.1633949359
 N          0.8932871415       -0.1399639386        0.0085387840
 O          0.9585182288        0.6457128094        0.9286221806
 O          1.7982429678       -0.3266624787       -0.7833338294
 H         -2.1471205420        0.6966063849       -1.4292643173
 H         -2.8713459426        1.3930781697        0.0193509887
 H         -1.1853004638        1.7207991555       -0.3570923319
 H         -2.3667227927       -0.9925922876        0.4152951640
 H         -1.3552213415        0.0245309159        1.4484805166
 H         -0.1255523445       -1.8879589435        0.3492578211
 H         -0.4157173668       -1.1430077378       -1.2316250249
  13
  -20.9622871000000       2.525704614453006E-002 !
 C         -2.0230000693       -0.7700921523       -0.4958209961
 C         -1.5179157363        0.2081715516        0.5594385166
 C         -0.2811712203        0.9615566170        0.0875667891
 N          0.8978049280        0.1033623412       -0.0105885010
 O          1.7837178933        0.4641429087       -0.7629336853
 O          0.9592586250       -0.9002590230        0.6652512721
 H         -2.2481581759       -0.2528164113       -1.4252688556
 H         -1.2799656107       -1.5392983623       -0.6962750698
 H         -2.9273475611       -1.2606907468       -0.1483092173
 H         -1.2816775442       -0.3335737528        1.4760081949
 H         -2.2937018745        0.9394906005        0.7830290086
 H         -0.4219832098        1.4210004976       -0.8928532864
 H         -0.0192114438        1.7500478245        0.7998294496
  13
  -20.9622878600000       2.527736674031852E-002 !
 C         -2.0244586576       -0.8129753878       -0.4391751143
 C         -1.5215031403        0.2481790580        0.5336451337
 C         -0.2845031522        0.9619953185        0.0048996029
 N          0.8993830892        0.1048984126       -0.0146706613
 O          1.7965001194        0.4188771833       -0.7748392887
 O          0.9527772281       -0.8517774836        0.7265882456
 H         -2.9272869774       -1.2766262445       -0.0527964556
 H         -2.2513303376       -0.3727762915       -1.4071774087
 H         -1.2789729964       -1.5934141997       -0.5769551493
 H         -1.2865903260       -0.2166947553        1.4918213482
 H         -2.2987889623        0.9940609560        0.6955203360
 H         -0.4224557491        1.3358122216       -1.0116849892
 H         -0.0287337882        1.8104462971        0.6469475022
  13
  -20.9622105700000       2.329226941608604E-002 !
 C         -2.7581007074        0.1347979187        0.0034653742
 C         -1.3624186030       -0.4118769041        0.2802615522
 C         -0.3014651499        0.5197722197       -0.2856638139
 N          1.0555339107        0.0382738912       -0.0540154908
 O          1.9676363301        0.7223774025       -0.4811379595
 O          1.2194574538       -1.0036788301        0.5431796982
 H         -2.9280681232        0.2297991799       -1.0655997735
 H         -3.5080318321       -0.5363011322        0.4107896629
 H         -2.8863295096        1.1112181009        0.4627971592
 H         -1.2542247746       -1.4004651982       -0.1683762379
 H         -1.2124069827       -0.5233518420        1.3551430194
 H         -0.4123995430        0.6441052798       -1.3666221653
 H         -0.3636296687        1.5163664145        0.1607562160
  13
  -20.9622094500000       2.326468027786734E-002 !
 C         -2.7579107442        0.1354301427        0.0047689127
 C         -1.3623159792       -0.4134411383        0.2775793364
 C         -0.3014222330        0.5209991894       -0.2838428201
 N          1.0554524582        0.0383977717       -0.0538626836
 O          1.9675635527        0.7215146658       -0.4825525272
 O          1.2192690957       -1.0033035646        0.5438357751
 H         -3.5079200457       -0.5378578080        0.4083545552
 H         -2.8853653721        1.1089661555        0.4703733726
 H         -2.9284168019        0.2372550898       -1.0636194124
 H         -1.2548869845       -1.3994836385       -0.1768291474
 H         -1.2115781802       -0.5311438187        1.3516990334
 H         -0.4119613738        0.6508254721       -1.3641730089
 H         -0.3636825881        1.5153108990        0.1677281302
  13
  -20.9622093700000       2.326271087606821E-002 !
 C         -2.7581204093        0.1357723504        0.0053853458
 C         -1.3625013473       -0.4138701844        0.2766133859
 C         -0.3013667934        0.5210836347       -0.2834827531
 N          1.0555605458        0.0383788324       -0.0538679738
 O          1.9676128450        0.7213580330       -0.4828704339
 O          1.2194360617       -1.0031753705        0.5440702861
 H         -2.8851835084        1.1083965465        0.4729825889
 H         -2.9289886578        0.2398016962       -1.0627251444
 H         -3.5081931236       -0.5381185378        0.4078636332
 H         -1.2555188036       -1.3991638397       -0.1795124007
 H         -1.2113180386       -0.5334249472        1.3504538478
 H         -0.4117486466        0.6523303350       -1.3636473742
 H         -0.3637487006        1.5147942182        0.1693899436
  13
  -20.9622085700000       2.324302602492082E-002 !
 C         -2.7553131678        0.1801152558       -0.0146651211
 C         -1.3017789701        0.6345467354       -0.0788345244
 C         -0.3632736245       -0.5520926400        0.0791481045
 N          1.0433361409       -0.1715918922        0.0189717945
 O          1.3341589795        0.9936724536       -0.1446862277
 O          1.8648306235       -1.0622841894        0.1381737805
 H         -2.9678221976       -0.2930602708        0.9402056285
 H         -3.4173420896        1.0330107170       -0.1288232303
 H         -2.9710908235       -0.5296763229       -0.8086833720
 H         -1.1038804874        1.3618514460        0.7099349854
 H         -1.1072777402        1.1268936663       -1.0328331114
 H         -0.5134045686       -1.0578392252        1.0372166654
 H         -0.5228831666       -1.2963854201       -0.7062673778
  13
  -20.9622080200000       2.322950235303680E-002 !
 C         -2.7552659862        0.1800938813       -0.0129455103
 C         -1.3018371982        0.6344603150       -0.0801743088
 C         -0.3632966064       -0.5521082968        0.0776119797
 N          1.0433483151       -0.1715553519        0.0188386409
 O          1.3342804349        0.9935751173       -0.1452540713
 O          1.8647371683       -1.0621057895        0.1398246710
 H         -2.9723110492       -0.5311427791       -0.8053566218
 H         -2.9662980999       -0.2912935250        0.9431941857
 H         -3.4174176187        1.0328116875       -0.1276194046
 H         -1.1026386889        1.3626989737        0.7074088860
 H         -1.1087708400        1.1256686733       -1.0350332746
 H         -0.5141475729       -1.0585162234        1.0351637616
 H         -0.5223253526       -1.2957556788       -0.7085700024
  13
  -20.9622078800000       2.322606122046644E-002 !
 C         -2.7554059099        0.1797038616       -0.0195640061
 C         -1.3017564770        0.6353196020       -0.0718937704
 C         -0.3632811287       -0.5523533643        0.0779941637
 N          1.0433963109       -0.1716615295        0.0187127876
 O          1.3340836264        0.9941080111       -0.1415157425
 O          1.8649187460       -1.0627067961        0.1349460188
 H         -3.4171190054        1.0337493452       -0.1266775714
 H         -2.9673471786       -0.5206399171       -0.8229541437
 H         -2.9721799335       -0.3048497540        0.9286104091
 H         -1.1079310192        1.3546811473        0.7251164078
 H         -1.1028053065        1.1373813204       -1.0198979494
 H         -0.5125623798       -1.0645639336        1.0326947773
 H         -0.5238685722       -1.2914020132       -0.7122139701
  13
  -20.9619251800000       1.722089195009210E-002 !
 C         -2.7275353207        0.1474654561       -0.0517686611
 C         -1.2993208629        0.2054738841        0.4733305012
 C         -0.3032002892       -0.1482760942       -0.6421989263
 N          1.0402357499       -0.0859715285       -0.0895301559
 O          1.6172768995        0.9826217135       -0.1096255666
 O          1.5016039516       -1.0941582046        0.4064155138
 H         -2.9642094742       -0.8505340781       -0.4099069064
 H         -3.4214627401        0.4012627729        0.7440487680
 H         -2.8654449757        0.8521684860       -0.8670000843
 H         -1.1771526877       -0.5001279159        1.2971803508
 H         -1.0787363405        1.2085210613        0.8430384531
 H         -0.4824437532       -1.1644265366       -0.9942949800
 H         -0.3757077271        0.5794954959       -1.4508394953
  13
  -20.9619193200000       1.711443523549218E-002 !
 C         -2.7221188773        0.2108555573        0.1043319357
 C         -1.3329859321       -0.1805279533       -0.3815368762
 C         -0.2567574091        0.3859418838        0.5579118653
 N          1.0461936934       -0.0189337147        0.0551128889
 O          1.6086141387        0.7150184069       -0.7324192144
 O          1.4871831536       -1.0930838755        0.4114629575
 H         -2.9038413336       -0.1798141066        1.1016330766
 H         -2.8294941585        1.2916301244        0.1285841103
 H         -3.4734050310       -0.1948278064       -0.5667535072
 H         -1.1678905378        0.2075519102       -1.3883279333
 H         -1.2417805556       -1.2678310609       -0.4120288671
 H         -0.2995768657        1.4753287455        0.5620660225
 H         -0.3823541038       -0.0280736996        1.5586770909
  13
  -20.9619192700000       1.711352973908254E-002 !
 C         -2.7219972203        0.2114059979        0.1041762245
 C         -1.3327574793       -0.1777553375       -0.3831661417
 C         -0.2568306707        0.3826479030        0.5603198003
 N          1.0461740535       -0.0196272631        0.0555562352
 O          1.6064859905        0.7162662507       -0.7316814853
 O          1.4891041914       -1.0936796460        0.4097522207
 H         -3.4729885169       -0.1896817025       -0.5699347713
 H         -2.9046286285       -0.1855903654        1.0987885030
 H         -2.8289594317        1.2920771719        0.1352027309
 H         -1.1668798361        0.2162511299       -1.3874920735
 H         -1.2421913248       -1.2648878087       -0.4202641901
 H         -0.2995781935        1.4719989653        0.5708377712
 H         -0.3828551481       -0.0372625485        1.5585727836
  13
  -20.9619189300000       1.710737363397275E-002 !
 C         -2.7220404924        0.2114803773        0.1037970239
 C         -1.3329479012       -0.1819535222       -0.3805740620
 C         -0.2567127458        0.3865033830        0.5577041224
 N          1.0461803696       -0.0187726692        0.0550518476
 O          1.6090554560        0.7152860789       -0.7320907143
 O          1.4866095823       -1.0933025209        0.4110361103
 H         -2.8290389765        1.2924072518        0.1248559870
 H         -3.4733578004       -0.1958556176       -0.5662211985
 H         -2.9041245801       -0.1763058839        1.1021227097
 H         -1.1674369118        0.2031592681       -1.3884321760
 H         -1.2422783184       -1.2693536366       -0.4080825610
 H         -0.2997559207        1.4758814926        0.5603128503
 H         -0.3819850469       -0.0261340021        1.5590802857
  13
  -20.9619055600000       1.686704152536757E-002 !
 C         -2.7272516402        0.1492540763       -0.0515930324
 C         -1.2995368265        0.1946635363        0.4761003202
 C         -0.3027487822       -0.1406815570       -0.6445674988
 N          1.0402601836       -0.0841011316       -0.0903615122
 O          1.6227263881        0.9815194262       -0.1111524389
 O          1.4956465763       -1.0937411961        0.4081712389
 H         -3.4218018846        0.3874015343        0.7484971058
 H         -2.8634159998        0.8708721785       -0.8521775200
 H         -2.9647076199       -0.8408155781       -0.4305718922
 H         -1.1795175652       -0.5259691055        1.2870872679
 H         -1.0774059783        1.1903554478        0.8643483822
 H         -0.4805575685       -1.1519467247       -1.0111983667
 H         -0.3762158855        0.5983540686       -1.4427128197
  13
  -20.9619037000000       1.683387574881844E-002 !
 C         -2.7263439616        0.1568639220       -0.0537216107
 C         -1.2982142749        0.2074293179        0.4724191302
 C         -0.3037076120       -0.1586682634       -0.6406262478
 N          1.0401457260       -0.0888089627       -0.0899751774
 O          1.6065118824        0.9855989734       -0.1012671838
 O          1.5107744483       -1.0958474664        0.3996086509
 H         -2.8594430653        0.8611850293       -0.8700432115
 H         -2.9683674033       -0.8402639760       -0.4107340098
 H         -3.4195826844        0.4155788301        0.7411275707
 H         -1.1826541557       -0.4947218349        1.3000358886
 H         -1.0697265662        1.2104367755        0.8375734377
 H         -0.4819012970       -1.1786483030       -0.9818504644
 H         -0.3782584109        0.5603178145       -1.4569354066
  13
  -20.9616741200000       1.320311647199380E-002 !
 C         -2.7418264111        0.2297836561       -0.1310819101
 C         -1.3181579490        0.4513037582        0.3631558613
 C         -0.3381086891       -0.4392774881       -0.4020782300
 N          1.0437773295       -0.1506272759       -0.0353044196
 O          1.3961560088        1.0090023265        0.0211724424
 O          1.7809544574       -1.0909852263        0.1870943174
 H         -3.4303129080        0.8501850419        0.4347213064
 H         -2.8295109907        0.4900599375       -1.1823616589
 H         -3.0335375913       -0.8093814787       -0.0049077791
 H         -1.2602976377        0.2229316802        1.4285325631
 H         -1.0309674717        1.4945606227        0.2244319922
 H         -0.5129559762       -1.4998199800       -0.2168919055
 H         -0.4303581970       -0.2354560619       -1.4730244967
  13
  -20.9616553300000       1.294318528755546E-002 !
 C         -2.7521891403        0.0474317818       -0.0606537220
 C         -1.3436670296       -0.0766750707        0.5054685694
 C         -0.3022907636        0.2279294922       -0.5729941743
 N          1.0514029777       -0.0025143438       -0.0821735268
 O          1.8866672438        0.8547474645       -0.2931629143
 O          1.2833417470       -1.0380562561        0.5061057246
 H         -2.9241230803        1.0499504455       -0.4430455189
 H         -2.9063751531       -0.6634582955       -0.8678106807
 H         -3.4826787383       -0.1528252776        0.7173733511
 H         -1.1783204415       -1.0873468787        0.8814658010
 H         -1.2187118534        0.6188954264        1.3369730077
 H         -0.4541073495       -0.4494883441       -1.4183573367
 H         -0.3562265201        1.2613720591       -0.9174042949
