  12
    -1.855721 !GC
 C          0.0000000000        0.0000000000        0.0000000000
 H          1.0969526420        0.0000000000        0.0000000000
 C         -0.5121924338        1.4440983387        0.0000000000
 F         -0.1201628853        2.0856464808       -1.1071357033
 F         -0.0326596681        2.1338035124        1.0367413746
 F         -1.8392345042        1.5210944760        0.0481579114
 O         -0.5369202959       -0.6263946695       -1.1227106453
 C          0.2037054281       -1.6358790638       -1.6471594160
 F         -0.4083054156       -2.8515283106       -1.5999725073
 F          1.3318061568       -1.7695372767       -0.9304325410
 Cl        -0.5624765755       -0.7714999285        1.5190700678
 H          0.4342713749       -1.3932731871       -2.6935877864
  12
    -0.476123 !GC
 C          0.0000000000        0.0000000000        0.0000000000
 H          1.0944835794        0.0000000000        0.0000000000
 C         -0.4839149286        1.4584718847        0.0000000000
 F         -0.2323021241        2.0570787207       -1.1715640361
 F          0.1691709986        2.1581760445        0.9351702623
 F         -1.7852612807        1.6047264360        0.2492521541
 O         -0.3570535230       -0.7684879568       -1.1149810199
 C         -1.6199833617       -1.1447080885       -1.3608512726
 F         -2.0757137145       -2.2660531726       -0.7159958432
 F         -1.8703207506       -1.4154265582       -2.6644795700
 Cl        -0.5651594388       -0.7290107996        1.5415521688
 H         -2.1893795682       -0.2743204658       -1.0215363487
  12
    -0.472565 !GC
 C          0.0000000000        0.0000000000        0.0000000000
 H          1.0951086043        0.0000000000        0.0000000000
 C         -0.4856624046        1.4596477704        0.0000000000
 F          0.1152500689        2.2221630055        0.9171478093
 F         -1.8045385149        1.5169605997        0.2420055456
 F         -0.2849006368        2.0447898821       -1.1805821456
 O         -0.3566990984       -0.7668012241       -1.1178540864
 C         -1.6040009498       -1.1663076827       -1.3863048188
 F         -1.6903956171       -2.1555270041       -2.3074887410
 F         -2.4799932751       -0.2294071221       -1.8798335573
 Cl        -0.5568267775       -0.7284821819        1.5475618770
 H         -1.9507779402       -1.5255725799       -0.4123183312
  12
    -0.465198 !GC
 C          0.0000000000        0.0000000000        0.0000000000
 H          1.0950041391        0.0000000000        0.0000000000
 C         -0.4848694492        1.4599929941        0.0000000000
 F          0.1487812187        2.1471961588        0.9681590519
 F         -1.7871047865        1.5216885872        0.2948575520
 F         -0.3062590006        2.1234612194       -1.1364118518
 O         -0.3563481678       -0.7676918034       -1.1172258060
 C         -1.6024479119       -1.1735313206       -1.3817166511
 F         -1.6871654119       -2.1625260414       -2.3033645421
 F         -2.4854332316       -0.2407613495       -1.8706062600
 Cl        -0.5558812186       -0.7302161189        1.5472027833
 H         -1.9434089401       -1.5352517523       -0.4065754315
  12
    -0.456861 !GC
 C          0.0000000000        0.0000000000        0.0000000000
 H          1.0947765362        0.0000000000        0.0000000000
 C         -0.4844135110        1.4583637943        0.0000000000
 F         -0.2251076549        2.0083299881       -1.1963042025
 F          0.1411220385        2.2207122336        0.9027385748
 F         -1.7947472158        1.5805929545        0.2061709377
 O         -0.3573670491       -0.7691915211       -1.1140680090
 C         -1.6185582830       -1.1545715305       -1.3551605394
 F         -2.0560630267       -2.2890766480       -0.7215163886
 F         -1.8776710362       -1.4102532931       -2.6601937237
 Cl        -0.5663506591       -0.7278631512        1.5420086485
 H         -2.1941287177       -0.2947073421       -0.9986087377
  12
    -0.449259 !GC
 C          0.0000000000        0.0000000000        0.0000000000
 H          1.0948239745        0.0000000000        0.0000000000
 C         -0.4844560409        1.4584912525        0.0000000000
 F         -0.2715356926        2.0649046301       -1.1765056879
 F          0.1201950670        2.1931387641        0.9378032443
 F         -1.7975158455        1.5307289292        0.2258800576
 O         -0.3563624198       -0.7711745406       -1.1132168023
 C         -1.6189797672       -1.1521126573       -1.3544535240
 F         -2.0608461788       -2.2850781887       -0.7212927456
 F         -1.8793436187       -1.4064617701       -2.6595607252
 Cl        -0.5646003797       -0.7289259362        1.5420518917
 H         -2.1918953990       -0.2903818043       -0.9986522782
  12
    -0.394616 !GC
 C          0.0000000000        0.0000000000        0.0000000000
 H          1.0959062238        0.0000000000        0.0000000000
 C         -0.5072344147        1.4453303660        0.0000000000
 F         -1.8475922896        1.4624191121        0.0486809031
 F         -0.1663078403        2.0639120240       -1.1366951558
 F         -0.0668574704        2.1841264666        1.0078347018
 O         -0.5333346138       -0.6343396294       -1.1336122017
 C          0.3039959372       -1.3700775284       -1.8764954615
 F          0.5251013756       -0.9296514317       -3.1410664538
 F         -0.1278119842       -2.6531371090       -2.0650622191
 Cl        -0.5669046435       -0.7688831830        1.5157235695
 H          1.2296940691       -1.3513868736       -1.2929508007
  12
    -0.389677 !GC
 C          0.0000000000        0.0000000000        0.0000000000
 H          1.0954724661        0.0000000000        0.0000000000
 C         -0.5054347406        1.4457338900        0.0000000000
 F         -0.0576364865        2.1325476055        1.0525811593
 F         -1.8452476592        1.4553085542        0.0822201726
 F         -0.1756127737        2.1227519714       -1.0935558013
 O         -0.5389766584       -0.6307171640       -1.1346977508
 C          0.2691035430       -1.4291337901       -1.8436724618
 F          0.9580264512       -0.8644516153       -2.8776937601
 F         -0.4137672187       -2.4414225426       -2.4457177540
 Cl        -0.5736652830       -0.7725819269        1.5092099246
 H          0.9613792886       -1.8135148540       -1.0897078016
  12
    -0.378557 !GC
 C          0.0000000000        0.0000000000        0.0000000000
 H          1.0954154392        0.0000000000        0.0000000000
 C         -0.5034228511        1.4465135670        0.0000000000
 F          0.0055089627        2.0824977667        1.0715235735
 F         -1.8286079946        1.5231734071        0.1097678531
 F         -0.1390915445        2.1454469879       -1.0670482823
 O         -0.5390103804       -0.6329255096       -1.1334898890
 C          0.2728257937       -1.4259759351       -1.8445867947
 F          0.9460197333       -0.8604811587       -2.8880789116
 F         -0.4021537981       -2.4512490694       -2.4334527503
 Cl        -0.5744303283       -0.7727618215        1.5087808320
 H          0.9757029993       -1.7967301323       -1.0938815882
  12
    -0.362170 !GC
 C          0.0000000000        0.0000000000        0.0000000000
 H          1.0967718466        0.0000000000        0.0000000000
 C         -0.4914660609        1.4501969026        0.0000000000
 F          0.0088468488        2.1930283650        0.9910117446
 F         -1.8231354002        1.4828588230        0.1075908469
 F         -0.1801246455        2.0710553334       -1.1374302532
 O         -0.5279833332       -0.6620449384       -1.1211504331
 C         -0.0081104229       -1.8229151296       -1.5436787968
 F          1.1588760903       -1.7710805939       -2.2638198834
 F         -0.8321378557       -2.5347110923       -2.3439891325
 Cl        -0.5384448562       -0.7516762258        1.5417281897
 H          0.1679700564       -2.3491579184       -0.5997558653
  12
    -0.343748 !GC
 C          0.0000000000        0.0000000000        0.0000000000
 H          1.0952647974        0.0000000000        0.0000000000
 C         -0.4874222495        1.4575119504        0.0000000000
 F         -0.2329971563        2.0079132685       -1.1967744269
 F          0.1358302586        2.2222261475        0.9017957478
 F         -1.7986152830        1.5746626857        0.2082077982
 O         -0.3507223956       -0.7716078508       -1.1128161057
 C         -1.6014817250       -1.2094533192       -1.3178520675
 F         -1.8031557829       -2.5441736822       -1.1240096014
 F         -2.0936359949       -0.9969769332       -2.5680140121
 Cl        -0.5589106835       -0.7237687258        1.5487223788
 H         -2.1672311620       -0.6397479846       -0.5724837122
  12
    -0.264320 !GC
 C          0.0000000000        0.0000000000        0.0000000000
 H          1.0957000690        0.0000000000        0.0000000000
 C         -0.5046430287        1.4476536898        0.0000000000
 F         -1.8440602776        1.4677323998        0.0600141846
 F         -0.1709845142        2.0641487561       -1.1397799646
 F         -0.0547394001        2.1862975877        1.0039703009
 O         -0.5395253035       -0.6283225666       -1.1375079098
 C          0.2451394377       -1.4179959580       -1.8752851700
 F         -0.3068682300       -1.8435221136       -3.0290318342
 F          0.6245188097       -2.6047301027       -1.2799191446
 Cl        -0.5667227073       -0.7725283648        1.5143336219
 H          1.1245971503       -0.7955501997       -2.0616625127
  12
    -0.243616 !GC
 C          0.0000000000        0.0000000000        0.0000000000
 H          1.0959607273        0.0000000000        0.0000000000
 C         -0.5084198801        1.4448386175        0.0000000000
 F         -0.0599860973        2.1344016478        1.0500834763
 F         -1.8478676108        1.4532365981        0.0825601836
 F         -0.1800917843        2.1202754232       -1.0958380978
 O         -0.5324159705       -0.6335871113       -1.1345285745
 C          0.3037164584       -1.3775534626       -1.8703302225
 F          0.5400991417       -0.9384372186       -3.1327816314
 F         -0.1397079110       -2.6559060289       -2.0637282287
 Cl        -0.5662801620       -0.7687525197        1.5160626165
 H          1.2247321438       -1.3688547539       -1.2791086517
  12
    -0.208898 !GC
 C          0.0000000000        0.0000000000        0.0000000000
 H          1.0954179625        0.0000000000        0.0000000000
 C         -0.5042483912        1.4462231884        0.0000000000
 F         -1.8450470889        1.4647091473        0.0451812735
 F         -0.1609508052        2.0631066570       -1.1373181368
 F         -0.0653128620        2.1852606414        1.0073586794
 O         -0.5398941753       -0.6314683196       -1.1337793375
 C          0.2699460540       -1.4218970962       -1.8498727307
 F          0.9439682780       -0.8511166876       -2.8901135985
 F         -0.4080043525       -2.4414780866       -2.4451721107
 Cl        -0.5742879844       -0.7727094345        1.5088682829
 H          0.9724524896       -1.7987756296       -1.1016703286
  12
    -0.204658 !GC
 C          0.0000000000        0.0000000000        0.0000000000
 H          1.0957873757        0.0000000000        0.0000000000
 C         -0.5053809023        1.4473353229        0.0000000000
 F         -0.1345042858        2.0830841957       -1.1161095873
 F         -0.0146475562        2.1432997772        1.0270863361
 F         -1.8342261110        1.5231642018        0.0699609648
 O         -0.5390892673       -0.6272553894       -1.1384190508
 C          0.2442402184       -1.4199668208       -1.8739230276
 F         -0.3049366537       -1.8404217486       -3.0310341328
 F          0.6142093371       -2.6099373837       -1.2791120963
 Cl        -0.5679160977       -0.7721086157        1.5141546485
 H          1.1280112191       -0.8021374817       -2.0553290639
  12
    -0.193984 !GC
 C          0.0000000000        0.0000000000        0.0000000000
 H          1.0955027459        0.0000000000        0.0000000000
 C         -0.5041601563        1.4461958286        0.0000000000
 F         -1.8440248706        1.4575462033        0.0750140278
 F         -0.1667504378        2.1255540588       -1.0900990577
 F         -0.0612083500        2.1305159373        1.0563470953
 O         -0.5385748091       -0.6318636242       -1.1344051076
 C          0.2718719649       -1.4280229150       -1.8431609672
 F          0.9530622936       -0.8644639594       -2.8826815915
 F         -0.4060325290       -2.4484432509       -2.4370578212
 Cl        -0.5756205752       -0.7723400576        1.5085973341
 H          0.9693256771       -1.8039675336       -1.0899487668
  12
    -0.187710 !GC
 C          0.0000000000        0.0000000000        0.0000000000
 H          1.0952425922        0.0000000000        0.0000000000
 C         -0.5058254051        1.4454932600        0.0000000000
 F         -1.8336844505        1.5258878290        0.0621936166
 F         -0.1242697439        2.0840765110       -1.1122076252
 F         -0.0174588320        2.1373599393        1.0312960754
 O         -0.5386807703       -0.6307228576       -1.1350622979
 C          0.2668425961       -1.4389327112       -1.8356525056
 F          0.9805064746       -0.8825182477       -2.8576048021
 F         -0.4239256595       -2.4373433093       -2.4512937874
 Cl        -0.5735042575       -0.7726262962        1.5089045582
 H          0.9411976296       -1.8375773050       -1.0734698249
  12
    -0.184761 !GC
 C          0.0000000000        0.0000000000        0.0000000000
 H          1.0953147590        0.0000000000        0.0000000000
 C         -0.4882969685        1.4573580488        0.0000000000
 F          0.1033492486        2.2187242132        0.9247349136
 F         -1.8091344174        1.5096721796        0.2332299645
 F         -0.2816668147        2.0473630733       -1.1769383560
 O         -0.3506514260       -0.7721887722       -1.1125296881
 C         -1.6017794446       -1.2087878977       -1.3179916761
 F         -1.8056901837       -2.5426822520       -1.1206276490
 F         -2.0916562616       -0.9994930024       -2.5696486929
 Cl        -0.5570127290       -0.7247735005        1.5488463044
 H         -2.1683576743       -0.6359945519       -0.5756683696
  12
    -0.150976 !GC
 C          0.0000000000        0.0000000000        0.0000000000
 H          1.0974646224        0.0000000000        0.0000000000
 C         -0.5122042218        1.4457692577        0.0000000000
 F         -1.8516485499        1.4595575763        0.0359819636
 F         -0.1630842587        2.0652123961       -1.1335889605
 F         -0.0787653987        2.1829377946        1.0112652588
 O         -0.5368543184       -0.6232821664       -1.1260549622
 C          0.1860566232       -1.6220279102       -1.6853460446
 F          0.8338439519       -2.3380898674       -0.7491750322
 F          1.1668311503       -1.1603330905       -2.5112210625
 Cl        -0.5550123111       -0.7712194951        1.5248012626
 H         -0.4914342150       -2.2736696113       -2.2550214675
  12
    -0.132230 !GC
 C          0.0000000000        0.0000000000        0.0000000000
 H          1.0969440627        0.0000000000        0.0000000000
 C         -0.5112209152        1.4442669568        0.0000000000
 F         -0.0687645931        2.1274766489        1.0565195564
 F         -1.8492124098        1.4551585233        0.0661055867
 F         -0.1670870996        2.1231488397       -1.0899974509
 O         -0.5373558553       -0.6241654169       -1.1238734826
 C          0.2010864952       -1.6351320918       -1.6484967926
 F         -0.4123991784       -2.8499797872       -1.5988483632
 F          1.3300233050       -1.7697500191       -0.9332002555
 Cl        -0.5642782964       -0.7698608479        1.5191911047
 H          0.4297769564       -1.3940848915       -2.6957204663
  12
    -0.127667 !GC
 C          0.0000000000        0.0000000000        0.0000000000
 H          1.0966921099        0.0000000000        0.0000000000
 C         -0.5084210383        1.4469233254        0.0000000000
 F          0.0050562963        2.0843266073        1.0676695407
 F         -1.8321347429        1.5213209182        0.1107718166
 F         -0.1469686507        2.1437100297       -1.0696762702
 O         -0.5439822865       -0.6211721835       -1.1256317883
 C          0.1345449068       -1.6659770087       -1.6548438883
 F          0.2946098464       -2.6802772941       -0.7747818278
 F          1.3974555853       -1.3099520373       -2.0017261624
 Cl        -0.5629191484       -0.7752843974        1.5173348591
 H         -0.4036179822       -2.0277400971       -2.5404299838
  12
    -0.125983 !GC
 C          0.0000000000        0.0000000000        0.0000000000
 H          1.0967794165        0.0000000000        0.0000000000
 C         -0.5091583947        1.4466030305        0.0000000000
 F         -1.8479772706        1.4519658973        0.0821207811
 F         -0.1759835971        2.1272493098       -1.0887597598
 F         -0.0642999413        2.1306092516        1.0560012425
 O         -0.5435518633       -0.6201181345       -1.1265366329
 C          0.1323366401       -1.6674099303       -1.6535966447
 F          0.2827200914       -2.6839144041       -0.7741609602
 F          1.3988695686       -1.3174566853       -1.9933490223
 Cl        -0.5641151456       -0.7748651492        1.5171588452
 H         -0.4030974811       -2.0252476524       -2.5424546435
  12
    -0.123502 !GC
 C          0.0000000000        0.0000000000        0.0000000000
 H          1.0967756315        0.0000000000        0.0000000000
 C         -0.5088834732        1.4466798370        0.0000000000
 F         -0.0123237597        2.1187069844        1.0433441946
 F         -1.8386871132        1.5470103799        0.0720057945
 F         -0.1144290668        2.0876616678       -1.0965528480
 O         -0.5426216265       -0.6207008250       -1.1265408261
 C          0.1293391986       -1.6740027679       -1.6467333702
 F          0.2696874029       -2.6875333362       -0.7622103736
 F          1.3994895165       -1.3326194848       -1.9816067295
 Cl        -0.5628011384       -0.7741939919        1.5180715932
 H         -0.4036639170       -2.0329360888       -2.5365856847
  12
    -0.123050 !GC
 C          0.0000000000        0.0000000000        0.0000000000
 H          1.0948264978        0.0000000000        0.0000000000
 C         -0.4852884635        1.4582116968        0.0000000000
 F          0.1062810872        2.2167346465        0.9276024312
 F         -1.8064775660        1.5116647086        0.2330030671
 F         -0.2769884152        2.0502071420       -1.1748435560
 O         -0.3572964399       -0.7697730782       -1.1137831326
 C         -1.6187757758       -1.1539205074       -1.3553504488
 F         -2.0588264801       -2.2859664142       -0.7190128221
 F         -1.8763737287       -1.4133697880       -2.6600017152
 Cl        -0.5644571078       -0.7288699618        1.5421371186
 H         -2.1940258885       -0.2922503816       -1.0027524885
  12
    -0.120726 !GC
 C          0.0000000000        0.0000000000        0.0000000000
 H          1.0966590544        0.0000000000        0.0000000000
 C         -0.5088704302        1.4467512963        0.0000000000
 F         -1.8498641153        1.4577374062        0.0456559601
 F         -0.1707338366        2.0620286842       -1.1390869214
 F         -0.0748103565        2.1864426059        1.0068517079
 O         -0.5435042638       -0.6214820520       -1.1256400243
 C          0.1329983255       -1.6703456754       -1.6497124831
 F          0.2843669079       -2.6832121241       -0.7664031137
 F          1.3991091016       -1.3205006869       -1.9911396175
 Cl        -0.5610962287       -0.7755719605        1.5178485342
 H         -0.4022396721       -2.0320161799       -2.5371333653
  12
    -0.117991 !GC
 C          0.0000000000        0.0000000000        0.0000000000
 H          1.0947109300        0.0000000000        0.0000000000
 C         -0.4826862489        1.4589851615        0.0000000000
 F          0.1416218205        2.1388577120        0.9800017778
 F         -1.7876840058        1.5243964074        0.2775318464
 F         -0.2847208847        2.1282241054       -1.1306853337
 O         -0.3564546295       -0.7698800131       -1.1140855045
 C         -1.6184514005       -1.1538361903       -1.3536584301
 F         -2.0548485718       -2.2917756134       -0.7254671655
 F         -1.8820670493       -1.4016294931       -2.6594186719
 Cl        -0.5654624166       -0.7290121908        1.5417719622
 H         -2.1926925153       -0.2958539975       -0.9909025222
  12
    -0.090567 !GC
 C          0.0000000000        0.0000000000        0.0000000000
 H          1.0967218850        0.0000000000        0.0000000000
 C         -0.4905950033        1.4503527613        0.0000000000
 F         -0.1401800355        2.0445821697       -1.1503905176
 F          0.0426292969        2.1761059640        0.9796578830
 F         -1.8162689044        1.5522544156        0.0930974420
 O         -0.5280414641       -0.6614614700       -1.1213735089
 C         -0.0074258043       -1.8213783362       -1.5455932863
 F          1.1575473662       -1.7674564849       -2.2687782181
 F         -0.8324461910       -2.5345912293       -2.3435150386
 Cl        -0.5403477022       -0.7506762864        1.5416399801
 H          0.1723331213       -2.3468029580       -0.6018742857
  12
    -0.055748 !GC
 C          0.0000000000        0.0000000000        0.0000000000
 H          1.0972372718        0.0000000000        0.0000000000
 C         -0.5134194293        1.4452310495        0.0000000000
 F         -0.0606613435        2.1360583855        1.0465462361
 F         -1.8512994789        1.4514098392        0.0836497541
 F         -0.1880060889        2.1183481647       -1.0983735913
 O         -0.5374380434       -0.6218399677       -1.1266983677
 C          0.1791521637       -1.6267443230       -1.6826600853
 F          0.7999622120       -2.3623787198       -0.7428846156
 F          1.1809954495       -1.1718485939       -2.4864180334
 Cl        -0.5547106078       -0.7712116429        1.5245799599
 H         -0.4983322134       -2.2620033981       -2.2700798855
  12
    -0.050620 !GC
 C          0.0000000000        0.0000000000        0.0000000000
 H          1.0950869038        0.0000000000        0.0000000000
 C         -0.4847853711        1.4599242672        0.0000000000
 F         -0.2373183927        2.0532088572       -1.1763594747
 F          0.1738679491        2.1631565580        0.9275107190
 F         -1.7845372755        1.6085583642        0.2532978026
 O         -0.3568731441       -0.7651936962       -1.1186261393
 C         -1.6032200289       -1.1670704698       -1.3870054491
 F         -1.6881907420       -2.1557255416       -2.3089480334
 F         -2.4813953324       -0.2314502893       -1.8790367526
 Cl        -0.5580470788       -0.7311081649        1.5459919858
 H         -1.9483092639       -1.5277239553       -0.4131963992
  12
    -0.044481 !GC
 C          0.0000000000        0.0000000000        0.0000000000
 H          1.0950586427        0.0000000000        0.0000000000
 C         -0.4847866394        1.4598000787        0.0000000000
 F         -0.2395570470        2.0061023894       -1.2000754556
 F          0.1452250407        2.2264847191        0.8951480579
 F         -1.7946383437        1.5780270036        0.2170203703
 O         -0.3567698700       -0.7662180344       -1.1181373866
 C         -1.6037812567       -1.1669211189       -1.3861398726
 F         -1.6897738337       -2.1536368019       -2.3099992696
 F         -2.4820879917       -0.2300547376       -1.8754361184
 Cl        -0.5587251723       -0.7274770279        1.5474405209
 H         -1.9479211192       -1.5299291533       -0.4125734032
  12
    -0.016425 !GC
 C          0.0000000000        0.0000000000        0.0000000000
 H          1.0949955598        0.0000000000        0.0000000000
 C         -0.4838911882        1.4601431333        0.0000000000
 F         -1.8078539469        1.5225002509        0.2049763761
 F         -0.2742364067        1.9885307579       -1.2155952213
 F          0.0980555517        2.2662226474        0.8793265116
 O         -0.3567913986       -0.7655014328       -1.1187176749
 C         -1.6034670755       -1.1679378579       -1.3855879999
 F         -1.6894683397       -2.1525233136       -2.3118788721
 F         -2.4844600473       -0.2314513645       -1.8710556736
 Cl        -0.5576908712       -0.7285710667        1.5472854110
 H         -1.9452865507       -1.5339144674       -0.4123115493
  12
    -0.016268 !GC
 C          0.0000000000        0.0000000000        0.0000000000
 H          1.0966588021        0.0000000000        0.0000000000
 C         -0.4897056638        1.4506993581        0.0000000000
 F         -1.8273884849        1.5110665560        0.0792104841
 F         -0.1576378665        2.0095075573       -1.1674702944
 F          0.0009488445        2.2268621137        0.9582002197
 O         -0.5280722523       -0.6607367660       -1.1218825648
 C         -0.0057778815       -1.8190988171       -1.5482221483
 F          1.1575574800       -1.7622473971       -2.2740251345
 F         -0.8310065058       -2.5335088903       -2.3450307335
 Cl        -0.5393106393       -0.7517658824        1.5414586313
 H          0.1770597470       -2.3449908620       -0.6053512391
  12
    -0.012244 !GC
 C          0.0000000000        0.0000000000        0.0000000000
 H          1.0968008647        0.0000000000        0.0000000000
 C         -0.4907400794        1.4504370051        0.0000000000
 F         -1.8125174642        1.5719186954        0.1388558312
 F         -0.1470720279        2.0983009845       -1.1188224980
 F          0.0611303275        2.1092714263        1.0181495139
 O         -0.5275266974       -0.6623179864       -1.1211317016
 C         -0.0097911810       -1.8246410092       -1.5420516378
 F          1.1569691001       -1.7757597546       -2.2627009630
 F         -0.8354164705       -2.5358437675       -2.3412315214
 Cl        -0.5389552371       -0.7507065947        1.5421178772
 H          0.1659693918       -2.3500964005       -0.5976779594
  12
    -0.010511 !GC
 C          0.0000000000        0.0000000000        0.0000000000
 H          1.0951999482        0.0000000000        0.0000000000
 C         -0.4865563753        1.4594278200        0.0000000000
 F         -1.7884140757        1.5977147580        0.2607737361
 F         -0.2439553758        2.0616742990       -1.1694202107
 F          0.1648452593        2.1602118678        0.9354531154
 O         -0.3567808606       -0.7664933828       -1.1177629116
 C         -1.6037496720       -1.1654439972       -1.3877224642
 F         -1.6891471857       -2.1587126913       -2.3045325780
 F         -2.4769036398       -0.2294531952       -1.8877990190
 Cl        -0.5571830153       -0.7310198264        1.5462687578
 H         -1.9537778304       -1.5193701880       -0.4132447151
  12
    -0.007006 !GC
 C          0.0000000000        0.0000000000        0.0000000000
 H          1.0952017146        0.0000000000        0.0000000000
 C         -0.4865283095        1.4578566179        0.0000000000
 F         -1.8127596625        1.5168628485        0.1938754254
 F         -0.2689710438        1.9880539054       -1.2136057337
 F          0.0864334440        2.2646928736        0.8842445824
 O         -0.3507436289       -0.7708952398       -1.1133998892
 C         -1.6010278018       -1.2105546725       -1.3173254044
 F         -1.8001829200       -2.5462151631       -1.1265981239
 F         -2.0957880030       -0.9958431891       -2.5661879476
 Cl        -0.5578766295       -0.7248629323        1.5485699760
 H         -2.1665449349       -0.6436524449       -0.5696419449
  12
    -0.005185 !GC
 C          0.0000000000        0.0000000000        0.0000000000
 H          1.0954699428        0.0000000000        0.0000000000
 C         -0.5046094820        1.4460249459        0.0000000000
 F         -0.1137940574        2.0862184203       -1.1086212739
 F         -0.0149417874        2.1360504439        1.0335091084
 F         -1.8309319460        1.5308214647        0.0540388794
 O         -0.5380925000       -0.6321747117       -1.1344087635
 C          0.2719455008       -1.4332047847       -1.8383649156
 F          0.9600201289       -0.8737693056       -2.8756300249
 F         -0.4080337928       -2.4512291913       -2.4339789337
 Cl        -0.5738076498       -0.7726343629        1.5091225228
 H          0.9646275659       -1.8114595067       -1.0818823176
  12
    -0.004971 !GC
 C          0.0000000000        0.0000000000        0.0000000000
 H          1.0947134533        0.0000000000        0.0000000000
 C         -0.4835189570        1.4587066159        0.0000000000
 F         -1.8105204162        1.5189679886        0.1905204301
 F         -0.2638678241        1.9873810145       -1.2142815119
 F          0.0881065958        2.2654981602        0.8840910321
 O         -0.3573886286       -0.7684778836       -1.1146501552
 C         -1.6182377088       -1.1556407579       -1.3545677502
 F         -2.0528065736       -2.2926734606       -0.7231976667
 F         -1.8790755038       -1.4085287182       -2.6599082471
 Cl        -0.5653191657       -0.7289562672        1.5418572563
 H         -2.1948238585       -0.2977083411       -0.9950054497
  12
    -0.002399 !GC
 C          0.0000000000        0.0000000000        0.0000000000
 H          1.0957545726        0.0000000000        0.0000000000
 C         -0.5058305790        1.4471640593        0.0000000000
 F         -0.0472005688        2.1386934734        1.0438102347
 F         -1.8444804553        1.4602747828        0.0916118603
 F         -0.1824513508        2.1176492139       -1.1005609044
 O         -0.5386064997       -0.6275667786       -1.1384241711
 C          0.2443938141       -1.4251274596       -1.8692495026
 F         -0.3021743180       -1.8446009785       -3.0279984617
 F          0.6059020133       -2.6159784487       -1.2710284004
 Cl        -0.5660980658       -0.7723983869        1.5146729370
 H          1.1320662556       -0.8121090005       -2.0480364813
  12
    -0.001579 !GC
 C          0.0000000000        0.0000000000        0.0000000000
 H          1.0959935304        0.0000000000        0.0000000000
 C         -0.5079709594        1.4450106843        0.0000000000
 F         -0.1288184549        2.0850558626       -1.1113894171
 F         -0.0248057717        2.1382597609        1.0327174852
 F         -1.8371143166        1.5200642927        0.0611072641
 O         -0.5328984117       -0.6332769009       -1.1345271151
 C          0.3033070088       -1.3722386323       -1.8750450984
 F          0.5325259803       -0.9307220221       -3.1379362984
 F         -0.1348664032       -2.6524642897       -2.0680832134
 Cl        -0.5680977541       -0.7684638489        1.5155434918
 H          1.2265825645       -1.3598125935       -1.2874653580
  12
    -0.001015 !GC
 C          0.0000000000        0.0000000000        0.0000000000
 H          1.0957086483        0.0000000000        0.0000000000
 C         -0.5056157781        1.4474895673        0.0000000000
 F          0.0138990213        2.0913000524        1.0611152306
 F         -1.8303581686        1.5197131687        0.1269596533
 F         -0.1597116898        2.1408841350       -1.0758243903
 O         -0.5390857886       -0.6305787194       -1.1363376969
 C          0.2469914175       -1.4188132137       -1.8741843368
 F         -0.3032688175       -1.8432012839       -3.0291424247
 F          0.6268783739       -2.6057961007       -1.2797216248
 Cl        -0.5649241666       -0.7741662066        1.5142116128
 H          1.1264489322       -0.7957621285       -2.0583934299
  12
    -0.000142 !GC
 C          0.0000000000        0.0000000000        0.0000000000
 H          1.0968612980        0.0000000000        0.0000000000
 C         -0.5113062319        1.4443339216        0.0000000000
 F         -1.8497980654        1.4629124624        0.0290719765
 F         -0.1525774925        2.0655722470       -1.1304914005
 F         -0.0797502989        2.1785226012        1.0149258006
 O         -0.5368743784       -0.6266875111       -1.1228428739
 C          0.2053779496       -1.6353541668       -1.6470127555
 F         -0.4025438936       -2.8528952645       -1.5941497833
 F          1.3364603297       -1.7634514893       -0.9338679360
 Cl        -0.5621213730       -0.7690105997        1.5204303889
 H          0.4312432105       -1.3950290467       -2.6952715753
