  12
  -39.7311018200000       0.252688909299211      !
 C          0.0662619747       -0.1098350459       -0.2736287276
 H         -0.2424529689        0.1583475472       -1.2913315454
 C          1.4848313124        0.4129426232       -0.0162047145
 F          2.3506669192       -0.0488612128       -0.9198368740
 F          1.9449545404        0.0789666092        1.1864858535
 F          1.5185439850        1.7482695663       -0.0928075228
 O         -0.7550482439        0.4487610431        0.7075575732
 C         -2.0688697003        0.5926486592        0.4169902617
 F         -2.6703665453       -0.5860589057        0.1369533246
 F         -2.2486654496        1.3430910776       -0.6995092479
 Cl         0.1164861972       -1.8995643355       -0.1534247789
 H         -2.5718847748        1.0697481227        1.2680823267
  12
  -39.7310985800000       0.251824035893313      !
 C          0.0778275151       -0.2341904691       -0.1737748082
 H         -0.1614949540       -0.5247170916       -1.2039262195
 C          1.4973690700        0.3437978866       -0.1235930248
 F          1.5838321943        1.4527720634       -0.8671126261
 F          2.3950734929       -0.5169775999       -0.6058942190
 F          1.8769360424        0.6693256857        1.1092224562
 O         -0.7773895693        0.7501671044        0.3250374082
 C         -2.0663502426        0.7265079031       -0.0864290463
 F         -2.6923698348       -0.4283831577        0.2360516176
 F         -2.1548555949        0.7985687989       -1.4388744101
 Cl         0.0552334707       -1.7101301229        0.8467192800
 H         -2.5999774059        1.5732838573        0.3642210043
  12
  -39.7310924500000       0.250195806915469      !
 C          0.0477862198        0.0489170405       -0.2933589531
 H         -0.3297923126        0.7886143828       -1.0096797676
 C          1.4800581542        0.4164227993        0.1131034344
 F          2.0224900234       -0.4686714864        0.9451968350
 F          1.5068849497        1.6034671204        0.7297968404
 F          2.2817310502        0.5130878585       -0.9486083053
 O         -0.7053250547       -0.0021889751        0.8811519273
 C         -2.0363327999        0.2203342245        0.7802601405
 F         -2.6506674437       -0.6728766793       -0.0286847148
 F         -2.2942058655        1.4278078924        0.2166138216
 Cl         0.1063280467       -1.5463880478       -1.1128441483
 H         -2.4824549285        0.1776414591        1.7822207622
  12
  -39.7299954300000       7.836543374009954E-002 !
 C          0.2182102830       -0.9793916153       -0.1815549139
 H          0.7058134606       -1.8472927552       -0.6400728145
 C          1.1876510669        0.2140887957       -0.2386206178
 F          1.3593344530        0.6457301617       -1.4935351941
 F          2.3936778378       -0.1588272963        0.2051392173
 F          0.8131396702        1.2595293195        0.4978985415
 O         -0.9733962611       -0.8228911470       -0.8812385762
 C         -1.7881795342        0.2455988063       -0.7084298699
 F         -1.2253634250        1.3995655895       -1.1540772398
 F         -2.0930438622        0.4829253162        0.5858809630
 Cl        -0.0428116911       -1.3465357887        1.5626054001
 H         -2.7115588086        0.0641538837       -1.2759788709
  12
  -39.7299896600000       7.788840909681337E-002 !
 C          0.1807884110       -0.1972479225       -0.9840982351
 H          0.6026363185       -0.0718298757       -1.9878337886
 C          1.1591011094        0.4092798265        0.0369024456
 F          2.3983840312       -0.0361596422       -0.2002096135
 F          0.8798114390        0.1117300623        1.3053422735
 F          1.2069707626        1.7428679667       -0.0633418185
 O         -1.0751481770        0.3969089441       -1.0419516513
 C         -1.8471628481        0.5833415496        0.0557533691
 F         -1.3147203690        1.4963265563        0.9102902663
 F         -2.0064881105       -0.5357149432        0.7952194311
 Cl         0.0966251638       -1.9626693965       -0.6355968389
 H         -2.8294810600        0.9464407083       -0.2772421387
  12
  -39.7299854300000       7.754054691480189E-002 !
 C          0.1819925540        0.9266943281       -0.3877818555
 H          0.5989271408        1.9380786561       -0.4569589766
 C          1.1485650605        0.0525048775        0.4300794107
 F          0.8750219546       -1.2509727935        0.3892402003
 F          1.1710805608        0.4196863408        1.7167160136
 F          2.3961230962        0.1996478934       -0.0305911887
 O         -1.0868489847        1.0938924361        0.1562712394
 C         -1.8583539762        0.0501610563        0.5452111699
 F         -1.3460955631       -0.5926181815        1.6277789203
 F         -1.9841733798       -0.9051648840       -0.4011135281
 Cl         0.1374587502        0.2311094266       -2.0490056379
 H         -2.8515971263        0.4401367049        0.8074804668
  12
  -39.7268398900000       2.779321362971383E-003 !
 C          0.2517125990       -0.5033234331       -0.8217255907
 H          0.5271812532       -0.6350963729       -1.8744166758
 C          1.2562117774        0.4519869746       -0.1482585715
 F          2.5118759943        0.0566204329       -0.3676412876
 F          1.0955833877        0.5305069831        1.1756423209
 F          1.1436938016        1.6908051514       -0.6348133552
 O         -1.0452638300       -0.0265983053       -0.8263177444
 C         -1.6742343327        0.2132778103        0.3647105918
 F         -2.9913546055        0.1042743993        0.1473216572
 F         -1.4702313881        1.4927714316        0.7664295132
 Cl         0.3972486081       -2.0883012152        0.0149898822
 H         -1.3842158545       -0.4576930235        1.1886971766
  12
  -39.7268366200000       2.769720705373075E-003 !
 C          0.3321774906       -0.8991306768       -0.2696660130
 H          0.7423855551       -1.6573893391       -0.9464907951
 C          1.2901806634        0.3068588779       -0.2160347712
 F          1.3216986453        0.9499333536       -1.3863343203
 F          2.5376307442       -0.0859102030        0.0497852688
 F          0.9530181328        1.2007937409        0.7177384780
 O         -0.9198104718       -0.5871679215       -0.7642942565
 C         -1.6925329668        0.3264900262       -0.1011213965
 F         -2.9709300085        0.0493182989       -0.3893279314
 F         -1.4692776818        1.5778854591       -0.5747196688
 Cl         0.2627201545       -1.5860623308        1.3906311709
 H         -1.5608785749        0.3424747943        0.9923636798
  12
  -39.7268358300000       2.767406258623687E-003 !
 C          0.2801534217       -0.3096842834       -0.9044342959
 H          0.5706040893       -0.2070304294       -1.9563435369
 C          1.2377359393        0.5212802326       -0.0283526950
 F          1.0601928554        0.3145888605        1.2795042169
 F          1.0784815292        1.8291389573       -0.2476126040
 F          2.5110514625        0.2295699646       -0.3018002604
 O         -1.0357065455        0.1059375734       -0.8322136490
 C         -1.6840127350        0.0680343816        0.3719090857
 F         -2.9932690371       -0.0492032080        0.1151310954
 F         -1.5403342364        1.2444267186        1.0318795555
 Cl         0.4842037310       -2.0277399142       -0.4144008783
 H         -1.3708850094       -0.7457773527        1.0448488644
  12
  -39.7260135200000       1.159218779983609E-003 !
 C          0.2160632616        0.4932729628       -0.7166076899
 H          0.5372744489        1.1723853109       -1.5159984017
 C          1.4147991503        0.2887615960        0.2540840070
 F          2.0550809362       -0.8657918886        0.0797021680
 F          1.0546066698        0.3552219663        1.5355806456
 F          2.3226160136        1.2584478302        0.0681446241
 O         -0.8343829821        1.1480258043       -0.0618011548
 C         -1.8164261828        0.4753522451        0.5798443226
 F         -1.3724930607       -0.5613782619        1.3233614244
 F         -2.6990794410       -0.0772544403       -0.2953192904
 Cl        -0.2379446456       -1.0695912223       -1.4564401786
 H         -2.3602913971        1.1837014443        1.2195178242
  12
  -39.7252116100000       4.961729554043180E-004 !
 C          0.1528511088       -0.2845293641       -0.3706021124
 H         -0.0498274918       -0.3363515949       -1.4482484118
 C          1.5171216886        0.3761767603       -0.1350399669
 F          2.4918369424       -0.2812669894       -0.7670060782
 F          1.8428284353        0.4286630543        1.1537013323
 F          1.5285922031        1.6281905504       -0.5995308580
 O         -0.7762136740        0.4720698055        0.3245236351
 C         -2.0933498306        0.1557340848        0.1105550161
 F         -2.4554597701        0.4763295943       -1.1575748414
 F         -2.8190798412        0.9257872043        0.9222759473
 Cl         0.2462927233       -1.9644411132        0.2607490585
 H         -2.3436418357       -0.9039514864        0.2801451248
  12
  -39.7252101700000       4.954174625247549E-004 !
 C          0.1564212949       -0.4654163739       -0.0102738908
 H          0.0042181622       -1.3224849393       -0.6790611995
 C          1.5386540483        0.1476219685       -0.2685201212
 F          1.6336538679        0.6012439564       -1.5209752941
 F          2.5091057244       -0.7547049419       -0.1078502898
 F          1.8045569735        1.1672134930        0.5434697603
 O         -0.7674613440        0.5487833067       -0.2025108280
 C         -2.0861518055        0.1720411663       -0.1940083686
 F         -2.3674387680       -0.5840126737       -1.2855030410
 F         -2.8139253714        1.2843685338       -0.3008411081
 Cl         0.1363764697       -1.0681101701        1.6826485084
 H         -2.3960041445       -0.3911885226        0.7008461390
  12
  -39.7251938800000       4.869506444324039E-004 !
 C          0.1431075497       -0.0288346674       -0.4708225259
 H         -0.0982401879        0.5173431884       -1.3920384582
 C          1.5057627316        0.4346539542        0.0595311698
 F          1.8779260347       -0.2236605005        1.1538836736
 F          1.4818897031        1.7343153796        0.3659230924
 F          2.4657627371        0.2681736234       -0.8527842547
 O         -0.7692163461        0.1883109188        0.5485553319
 C         -2.0893809450        0.0056397830        0.2254000503
 F         -2.5011305603        0.9688502068       -0.6377267699
 F         -2.7944606254        0.1688617607        1.3455167365
 Cl         0.2811312669       -1.7742657015       -0.8754555198
 H         -2.3205333502       -0.9751770243       -0.2207937667
  12
  -39.7242682000000       1.828402774565812E-004 !
 C          0.2195431366       -0.0635448979       -0.5495403603
 H          0.1486231366        0.2134722270       -1.6097844357
 C          1.5577232563        0.4260456215        0.0228847192
 F          2.5906848376       -0.0562938830       -0.6699458584
 F          1.7305141984        0.0758019351        1.2939822176
 F          1.6395955852        1.7586111903       -0.0370697673
 O         -0.7712487200        0.5098298200        0.2326185845
 C         -2.0666046368        0.3658100184       -0.1815524633
 F         -2.7424966782        1.4568993943        0.2055670591
 F         -2.6555102309       -0.6774400984        0.4471787433
 Cl         0.2025968630       -1.8598217294       -0.4475858211
 H         -2.1924297654        0.2247616580       -1.2673510632
  12
  -39.7242597800000       1.812184066456967E-004 !
 C          0.1868748156        0.5239147798       -0.2060412878
 H          0.0531192699        1.6138272054       -0.2058358737
 C          1.5576121452        0.1726075747        0.3904121265
 F          1.8062849299       -1.1335085419        0.3689433248
 F          1.6373370299        0.5715773113        1.6633935341
 F          2.5463085898        0.7800621985       -0.2677283408
 O         -0.7551429484       -0.1421314523        0.5624385608
 C         -2.0723654216        0.1555809833        0.3468424313
 F         -2.7180582745        0.0172880405        1.5135404722
 F         -2.6330413124       -0.7420911776       -0.4959838940
 Cl         0.1722386518       -0.0320065550       -1.9172357168
 H         -2.2588391478        1.1644303896       -0.0560848126
  12
  -39.7242459800000       1.785912868770415E-004 !
 C          0.2334121520       -0.5365059110       -0.0918040047
 H          0.2217387724       -1.4569196673       -0.6908421588
 C          1.5834020656        0.1741295358       -0.2666665257
 F          1.7691368454        0.5339974848       -1.5403192570
 F          2.6002949129       -0.6244084382        0.0615773251
 F          1.6838515369        1.2740878421        0.4737126880
 O         -0.7392624585        0.3752640161       -0.4719427954
 C         -2.0237399326       -0.0811200619       -0.5831689946
 F         -2.6307234585        0.6394132918       -1.5364979526
 F         -2.7151824287        0.1532934139        0.5560168436
 Cl         0.0784664975       -1.0039918238        1.6389934602
 H         -2.1145280985       -1.1533084001       -0.8221625925
