  10
  -13.5398201800000       5.246951195516350E-002 !
 C         -1.2662609136        0.7023712821       -0.0026031096
 C          0.0000047763       -0.1031621232        0.0000585093
 O          0.0001259686       -1.3197712551       -0.0000136944
 C          1.2661244572        0.7025862544        0.0025975636
 H         -1.4011760750        1.1352354384        0.9866462008
 H         -1.1974476521        1.5149416424       -0.7193443187
 H         -2.1190360027        0.0679261285       -0.2274692578
 H          1.4018244590        1.1337062498       -0.9872875516
 H          2.1188130865        0.0686306885        0.2292142476
 H          1.1965917554        1.5164209049        0.7178269387
  10
  -13.5398201000000       5.246507030584747E-002 !
 C         -1.2663201989        0.7023220013       -0.0025955522
 C          0.0000052193       -0.1031379374       -0.0000079524
 O          0.0001378152       -1.3197134694       -0.0000004301
 C          1.2661930325        0.7025298195        0.0026053832
 H         -1.3971635142        1.1352224068       -0.9923486667
 H         -2.1201159554        0.0679422722        0.2186948638
 H         -1.2005330246        1.5149062041        0.7144113688
 H          1.1999302423        1.5154361470       -0.7140247524
 H          2.1199863474        0.0684245759       -0.2193289771
 H          1.3971614507        1.1349837144        0.9925806050
  10
  -13.5398200800000       5.246395995226885E-002 !
 C         -1.2663220153        0.7023104963       -0.0026000321
 C          0.0000172331       -0.1031554560        0.0000449890
 O          0.0001204787       -1.3197346143       -0.0000092466
 C          1.2661988218        0.7025376078        0.0026009197
 H         -2.1204119157        0.0673322398        0.2157612172
 H         -1.2016468140        1.5128903112        0.7167753939
 H         -1.3955524018        1.1380075454       -0.9913569940
 H          1.3945405026        1.1400774395        0.9906665106
 H          1.2018647285        1.5118483800       -0.7182077825
 H          2.1205561357        0.0673480860       -0.2140382415
  10
  -13.5398200500000       5.246229446591238E-002 !
 C         -1.2662658725        0.7023201218       -0.0026029557
 C          0.0000058883       -0.1031771611       -0.0000294535
 O          0.0001208624       -1.3197472249       -0.0000069295
 C          1.2661351547        0.7025435096        0.0025977495
 H         -2.1205779333        0.0669471002        0.2136072172
 H         -1.2021680361        1.5113042005        0.7186629455
 H         -1.3944344832        1.1403755285       -0.9904316123
 H          2.1203943762        0.0674460742       -0.2146427861
 H          1.3947268238        1.1393477278        0.9909750665
 H          1.2016282440        1.5123571584       -0.7176478276
  10
  -13.5398200300000       5.246118417108073E-002 !
 C         -1.2662179441        0.7024099050       -0.0025858374
 C          0.0000060430       -0.1032121601       -0.0000625425
 O          0.0001709946       -1.3197843221        0.0000139535
 C          1.2660543260        0.7025628343        0.0026146026
 H         -1.4012850604        1.1349767118        0.9867618500
 H         -1.1973159300        1.5152823665       -0.7190057599
 H         -2.1190513011        0.0681926001       -0.2277440676
 H          1.1966369917        1.5156012872        0.7187464357
 H          1.4012040988        1.1348170873       -0.9869134244
 H          2.1189746259        0.0686135043        0.2283359711
  10
  -13.5398200300000       5.246118417108073E-002 !
 C         -1.2663534953        0.7022791190       -0.0026298479
 C          0.0000214334       -0.1031641102        0.0002139968
 O          0.0001163843       -1.3197181368       -0.0000539153
 C          1.2662321476        0.7025111878        0.0025712378
 H         -1.2028135470        1.5111485536        0.7187522788
 H         -1.3940543568        1.1405075417       -0.9905337586
 H         -2.1207952084        0.0668376399        0.2129005079
 H          2.1208250151        0.0669362045       -0.2118945471
 H          1.3935392772        1.1422693436        0.9898050713
 H          1.2026420001        1.5103350095       -0.7200253399
  10
  -13.5398200200000       5.246062903252596E-002 !
 C         -1.2663300696        0.7022463692       -0.0026528251
 C          0.0000016526       -0.1031240671        0.0002624706
 O          0.0000657119       -1.3196989300       -0.0000824125
 C          1.2662327257        0.7025460146        0.0025482138
 H         -1.2022749154        1.5112644793        0.7185195253
 H         -1.3943037729        1.1399800833       -0.9906350023
 H         -2.1205289075        0.0666994540        0.2136620026
 H          1.2024321928        1.5108808489       -0.7194888303
 H          2.1207543435        0.0670395946       -0.2126573639
 H          1.3940182587        1.1413630473        0.9900267622
  10
  -13.5398200000000       5.245951877294099E-002 !
 C         -1.2664681203        0.7022537158       -0.0026489360
 C          0.0000127573       -0.1030248439        0.0004118650
 O          0.0002332191       -1.3195265371       -0.0000887916
 C          1.2662992990        0.7023385749        0.0025525215
 H         -1.2001764799        1.5168130391        0.7118945439
 H         -1.3987554944        1.1323177495       -0.9934021476
 H         -2.1199784117        0.0684547223        0.2210534699
 H          1.3957155336        1.1380304904        0.9913649464
 H          1.2009983070        1.5126784529       -0.7170481069
 H          2.1203542509        0.0673985760       -0.2162122290
  10
  -13.5398199400000       5.245618813506853E-002 !
 C         -1.2663071341        0.7023625101       -0.0025897527
 C         -0.0000019758       -0.1031405914        0.0000286786
 O          0.0001141773       -1.3197624680        0.0000029783
 C          1.2661768693        0.7025937212        0.0026111229
 H         -2.1188635443        0.0685524285       -0.2303411954
 H         -1.4027036181        1.1323883507        0.9877418934
 H         -1.1962650468        1.5169800868       -0.7169510042
 H          1.4038589389        1.1298911088       -0.9887664194
 H          2.1185153679        0.0694842620        0.2331012767
 H          1.1952213192        1.5191843138        0.7145717860
  10
  -13.5398199300000       5.245563304938126E-002 !
 C         -1.2661558541        0.7023180386       -0.0024598925
 C          0.0000078720       -0.1031544699       -0.0009704587
 O         -0.0000010514       -1.3197670975        0.0002169639
 C          1.2660545497        0.7026843277        0.0027404205
 H         -1.3952354477        1.1398573180       -0.9905420352
 H         -2.1200103007        0.0667818514        0.2156579422
 H         -1.2011329835        1.5114124478        0.7185078214
 H          1.3976603985        1.1331627535        0.9934467250
 H          1.2006344650        1.5167718296       -0.7125426191
 H          2.1192139094        0.0681834636       -0.2197504883
  10
  -13.5398198800000       5.245285770875577E-002 !
 C         -1.2662963219        0.7023035136       -0.0026749848
 C          0.0000469444       -0.1031839333        0.0005408631
 O          0.0001113467       -1.3197684370       -0.0001270900
 C          1.2661785171        0.7025408039        0.0025258754
 H         -2.1204042562        0.0674498256        0.2163291503
 H         -1.2014201587        1.5134644714        0.7159015300
 H         -1.3958037293        1.1373393281       -0.9916867305
 H          1.2034044050        1.5084368031       -0.7220080776
 H          2.1210286266        0.0667638873       -0.2097503075
 H          1.3922720479        1.1449710263        0.9885635996
  10
  -13.5398198400000       5.245063754201904E-002 !
 C         -1.2662860194        0.7021964923       -0.0026274319
 C          0.0000099007       -0.1029939996        0.0000820398
 O          0.0001093095       -1.3195015007       -0.0000415885
 C          1.2661889587        0.7024503297        0.0025734256
 H         -1.4043874918        1.1287222622        0.9888829101
 H         -1.1950374841        1.5189560206       -0.7141843629
 H         -2.1180498089        0.0685718211       -0.2336656797
 H          2.1187475133        0.0688215454        0.2308806434
 H          1.1956336834        1.5172222506        0.7163746297
 H          1.4023970869        1.1319843727       -0.9879620418
  10
  -13.5398198200000       5.244952749389070E-002 !
 C         -1.2662817066        0.7022720288       -0.0025822176
 C         -0.0000254742       -0.1031043818        0.0001681348
 O          0.0000398482       -1.3196523950        0.0000004048
 C          1.2661730791        0.7025943441        0.0026185986
 H         -1.1974050641        1.5139797894       -0.7205339093
 H         -2.1191136094        0.0674760152       -0.2266734625
 H         -1.4006780440        1.1361765848        0.9864584252
 H          1.1948006970        1.5211123022        0.7123370448
 H          1.4055334137        1.1268662149       -0.9899414067
 H          2.1178280513        0.0697617011        0.2359098496
  10
  -13.5398198000000       5.244841746925508E-002 !
 C         -1.2660930250        0.7024569389       -0.0026503507
 C          0.0000558919       -0.1032275020        0.0000339776
 O          0.0000862730       -1.3198969161       -0.0000630798
 C          1.2660161094        0.7027424089        0.0025497574
 H         -1.1938543304        1.5220029939       -0.7109479573
 H         -2.1174990214        0.0698760030       -0.2375159185
 H         -1.4064798508        1.1253970812        0.9901810622
 H          2.1189869336        0.0686475455        0.2276054676
 H          1.1968864823        1.5153422890        0.7192853831
 H          1.4008408661        1.1354874110       -0.9868129498
  10
  -13.5398197000000       5.244286769844993E-002 !
 C         -1.2662162723        0.7022953222       -0.0025924844
 C          0.0000394187       -0.1030592159       -0.0003124940
 O          0.0001614355       -1.3195466418        0.0000255373
 C          1.2660973830        0.7024805229        0.0026080410
 H         -1.1939589984        1.5225007484       -0.7100848709
 H         -2.1173114277        0.0696549258       -0.2381876312
 H         -1.4069337126        1.1239180611        0.9907756466
 H          1.4018291768        1.1340973493       -0.9871197629
 H          2.1186755056        0.0684076103        0.2293742646
 H          1.1960839136        1.5156557915        0.7183753303
  10
  -13.5398195900000       5.243676362877803E-002 !
 C         -1.2661631114        0.7023860404       -0.0027058876
 C         -0.0000575807       -0.1031905591        0.0008595886
 O          0.0001659594       -1.3197621756       -0.0001844196
 C          1.2660200451        0.7025606216        0.0024943697
 H         -2.1201476071        0.0652251698       -0.2149986612
 H         -1.3949676894        1.1482218187        0.9814252276
 H         -1.2017345089        1.5055686844       -0.7305595043
 H          1.1984748744        1.5135967622        0.7211576680
 H          1.3991357273        1.1370805498       -0.9864366391
 H          2.1189958036        0.0674923729        0.2246167841
  10
  -13.5398193800000       5.242511237774038E-002 !
 C         -1.2662819510        0.7022203241       -0.0025564854
 C          0.0000442719       -0.1030162643       -0.0003996413
 O          0.0001108686       -1.3194878626        0.0000708153
 C          1.2661793165        0.7024667513        0.0026443438
 H         -2.1172935255        0.0707386634       -0.2423225693
 H         -1.4087724698        1.1198121394        0.9923208874
 H         -1.1920332697        1.5253406486       -0.7065073738
 H          2.1183614799        0.0697530562        0.2346049181
 H          1.1940507960        1.5197370421        0.7136430991
 H          1.4046225886        1.1284658861       -0.9891477979
  10
  -13.5398190700000       5.240791764325556E-002 !
 C         -1.2663189126        0.7022493307       -0.0026380934
 C          0.0000687637       -0.1029895787        0.0005198985
 O          0.0001038601       -1.3195339190       -0.0000858240
 C          1.2662348182        0.7025114975        0.0025629293
 H         -1.4065856108        1.1163973877       -0.9992009833
 H         -2.1176374652        0.0712035111        0.2369115450
 H         -1.1942832939        1.5278560954        0.6985586305
 H          2.1192348419        0.0692592017       -0.2255153252
 H          1.4004243765        1.1293939408        0.9946638158
 H          1.1973812238        1.5192715331       -0.7093548718
  10
  -13.5392260200000       2.798014717502837E-002 !
 C         -1.2683820958        0.7009557822       -0.0025152548
 C          0.0040302769       -0.0992238131       -0.0011027176
 O         -0.0000389174       -1.3164095524        0.0001727972
 C          1.2704593501        0.7022644587        0.0026988098
 H         -1.8322445517        0.4646747209        0.8978548013
 H         -1.0746697246        1.7664880035       -0.0486486389
 H         -1.8804278901        0.3941825985       -0.8479000493
 H          1.2981046556        1.3280903780       -0.8861817049
 H          2.1382129560        0.0486322488        0.0210027712
 H          1.2788642721        1.3552040519        0.8720827950
  10
  -13.5392229900000       2.789057725155663E-002 !
 C         -1.2685420200        0.7014066662       -0.0028437301
 C          0.0043667807       -0.0993168071        0.0010057036
 O          0.0000118886       -1.3169745345       -0.0003379665
 C          1.2703351565        0.7024778047        0.0023704292
 H         -1.0753184897        1.7669056912       -0.0608235461
 H         -1.8842725881        0.3847992726       -0.8429371857
 H         -1.8279145477        0.4744047929        0.9035076177
 H          1.2780324703        1.3616769313        0.8673920629
 H          1.2967289088        1.3220563484       -0.8912741198
 H          2.1391532645        0.0495902169        0.0231556637
