  16
        -24.12716223
 C          1.5831053015        1.3807851142        0.0963905218
 C          2.0642410292       -0.0339409530       -0.2074734938
 C          1.0699825635       -1.1143469998        0.2172747025
 C         -0.2503645528       -1.0444116349       -0.5481411118
 N         -1.1535456851       -0.0342251775       -0.0032369727
 O         -1.7782034354        0.6495302186       -0.7925496830
 O         -1.2681857716        0.0553587159        1.2003754346
 H          0.7347508837        1.6590800686       -0.5259664899
 H          1.2866302476        1.4712689715        1.1399653097
 H          2.3776843545        2.0975371810       -0.0948629439
 H          2.2686390346       -0.1251870904       -1.2758186048
 H          3.0004248189       -0.2087249437        0.3247590143
 H          1.5161008590       -2.0922797695        0.0407056907
 H          0.8584173937       -1.0246140597        1.2843878236
 H         -0.7777864743       -1.9974336894       -0.4498380835
 H         -0.1072037480       -0.8181315880       -1.6055951926
