  16
        -24.12716223
 C          1.5831053015        1.3807851142        0.0963905218
 C          2.0642410292       -0.0339409530       -0.2074734938
 C          1.0699825635       -1.1143469998        0.2172747025
 C         -0.2503645528       -1.0444116349       -0.5481411118
 N         -1.1535456851       -0.0342251775       -0.0032369727
 O         -1.7782034354        0.6495302186       -0.7925496830
 O         -1.2681857716        0.0553587159        1.2003754346
 H          0.7347508837        1.6590800686       -0.5259664899
 H          1.2866302476        1.4712689715        1.1399653097
 H          2.3776843545        2.0975371810       -0.0948629439
 H          2.2686390346       -0.1251870904       -1.2758186048
 H          3.0004248189       -0.2087249437        0.3247590143
 H          1.5161008590       -2.0922797695        0.0407056907
 H          0.8584173937       -1.0246140597        1.2843878236
 H         -0.7777864743       -1.9974336894       -0.4498380835
 H         -0.1072037480       -0.8181315880       -1.6055951926
  16
        -24.12696484
 C          2.8578069944        1.0771349041       -0.1868474965
 C          1.5978915079        0.4271301619        0.3722477279
 C          0.9524774750       -0.4992076034       -0.6571933185
 C         -0.2925827511       -1.1964483193       -0.1038652626
 N         -1.3513650667       -0.2183467402        0.1220325371
 O         -1.7364983127        0.4350943187       -0.8253901847
 O         -1.7925843297       -0.0997297946        1.2475941477
 H          2.6222071756        1.6668692889       -1.0695734791
 H          3.3073254072        1.7333926766        0.5534892131
 H          3.5865344844        0.3193165845       -0.4633389139
 H          1.8509126220       -0.1424997135        1.2685859685
 H          0.8894376773        1.2069800604        0.6644711535
 H          0.6708206060        0.0731605066       -1.5431157264
 H          1.6682379662       -1.2641831432       -0.9567862760
 H         -0.0912634737       -1.6890855241        0.8477542587
 H         -0.6647557313       -1.9124530194       -0.8394786698
  16
        -24.12671287
 C          2.9778251664        0.8026140822        0.4464548261
 C          1.6170293341        0.6274864714       -0.2166794160
 C          1.0146297251       -0.7387100387        0.1122278571
 C         -0.3146366028       -0.9713318068       -0.5913895902
 N         -1.3925909055       -0.1369572795       -0.0633909723
 O         -2.3569174548        0.0410232988       -0.7844958850
 O         -1.2996765292        0.3165107582        1.0559876546
 H          3.3940244806        1.7777985154        0.2080663540
 H          2.8866772045        0.7242542152        1.5271182844
 H          3.6711970298        0.0389350607        0.1026891334
 H          0.9460316803        1.4164504667        0.1305667641
 H          1.7265115214        0.7287895433       -1.2984244925
 H          1.7058745661       -1.5213155911       -0.1999642211
 H          0.8719416098       -0.8191771421        1.1907874867
 H         -0.6432932363       -2.0061014854       -0.4535103784
 H         -0.2586016089       -0.7758807125       -1.6641960196
  16
        -24.12661983
 C          2.0960018224        1.0983174438       -0.8165501403
 C          1.6970585609        0.3898088954        0.4743162505
 C          1.0636899622       -0.9829163962        0.2407081402
 C         -0.2099987558       -0.9291886582       -0.6114341312
 N         -1.2102360963       -0.1079060755        0.0576002144
 O         -1.5441191760        0.9344298063       -0.4689725970
 O         -1.6500683459       -0.4981041921        1.1199021145
 H          2.6886075864        1.9801841322       -0.5877530000
 H          2.6902760045        0.4402145840       -1.4454695723
 H          1.2211390669        1.4258403200       -1.3728444906
 H          2.5847101037        0.2470155356        1.0927288746
 H          1.0090559012        1.0255685996        1.0381205722
 H          1.7759663043       -1.6299439667       -0.2706471416
 H          0.8180049095       -1.4320332347        1.2046136853
 H         -0.6181397392       -1.9370350740       -0.7042755440
 H         -0.0204821743       -0.4940843134       -1.5916335521
  16
        -24.12647498
 C          2.3285769417        1.2855839659       -0.1807860370
 C          1.6455337874        0.0536865080       -0.7658624242
 C          1.0482893993       -0.8622459395        0.3019599119
 C         -0.1425879570       -0.2421945046        1.0520909050
 N         -1.2598941325       -0.1221031541        0.1301854630
 O         -1.3931554895        0.9187290752       -0.4813563550
 O         -1.9831470695       -1.0882584948       -0.0166790593
 H          3.0491877888        0.9986403979        0.5810147168
 H          2.8539998513        1.8253220370       -0.9640702825
 H          1.6039449025        1.9663602499        0.2581043453
 H          0.8704897894        0.3717117322       -1.4673774781
 H          2.3785434106       -0.5243339465       -1.3310568110
 H          0.7196575183       -1.7971930042       -0.1565809910
 H          1.8126512868       -1.0971815657        1.0426462596
 H          0.1115720150        0.7516773565        1.4174867890
 H         -0.4472418156       -0.9054743073        1.8615721310
  16
        -24.12646163
 C          3.3318463529        0.4974208594        0.4930119639
 C          2.1984731870        0.1224450137       -0.4540666162
 C          0.8466432588        0.1600103796        0.2576497550
 C         -0.2811010186       -0.2147924486       -0.6904908944
 N         -1.5904489968       -0.1873224481       -0.0468214560
 O         -2.5508391844       -0.4889710910       -0.7314644310
 O         -1.6692833737        0.1286178503        1.1203263000
 H          3.1856081659        1.5008671925        0.8853374340
 H          3.3734335585       -0.1936098933        1.3314494129
 H          4.2867488524        0.4668783241       -0.0247739281
 H          2.1864243896        0.8171177515       -1.2954933132
 H          2.3745041030       -0.8795751584       -0.8485661118
 H          0.8574138197       -0.5303083594        1.1029143703
 H          0.6697365206        1.1599340442        0.6576306941
 H         -0.1496444688       -1.2221165843       -1.0953166708
 H         -0.3342393980        0.4703257724       -1.5413713777
  16
        -24.12646237
 C          2.3187076463        0.9350577075       -0.9618084705
 C          1.6840097802        0.5631475684        0.3741918036
 C          1.0489402468       -0.8269960337        0.3666296065
 C         -0.2000379536       -0.9299379537       -0.5249798178
 N         -1.2653386953       -0.1468174283        0.0785954192
 O         -1.3870367133        1.0144383670       -0.2558972482
 O         -1.9571575320       -0.6816543300        0.9232445576
 H          3.0131522962        0.1629564754       -1.2837240856
 H          1.5642504491        1.0732260755       -1.7318012252
 H          2.8652469923        1.8694140507       -0.8652428157
 H          2.4529267137        0.5767031943        1.1483222846
 H          0.9400458922        1.3176147548        0.6411156711
 H          1.7741143810       -1.5517880967       -0.0033947350
 H          0.7716478792       -1.1118162968        1.3835796189
 H         -0.5312029316       -1.9673550743       -0.5687785031
 H          0.0045603203       -0.5280876422       -1.5162835987
  16
        -24.12628585
 C          3.3536461720       -0.1312170045       -0.1245532865
 C          2.0986493422        0.7332490787       -0.1432312277
 C          0.8415083046       -0.1258428895       -0.0241823821
 C         -0.4220633097        0.7465085687       -0.0420898492
 N         -1.5769138354       -0.1302869021        0.0740762777
 O         -2.0658702575       -0.5694887643       -0.9471490134
 O         -1.9670268379       -0.4161987505        1.1880350528
 H          3.3457355705       -0.8354308113       -0.9529512375
 H          4.2411199039        0.4896938446       -0.2101211196
 H          3.4165082919       -0.6946352564        0.8032507311
 H          2.1340229733        1.4423526905        0.6848880682
 H          2.0633639244        1.3016677542       -1.0735514141
 H          0.8009421835       -0.8332280041       -0.8550416594
 H          0.8720394094       -0.6933547051        0.9082124134
 H         -0.4933039790        1.2841385639       -0.9878056064
 H         -0.4197746572        1.4256757742        0.8107169811
  16
        -24.12609914
 C          2.7720044759        1.1436428292       -0.2654113526
 C          2.3261384607       -0.3039676330       -0.0884387499
 C          0.9131563127       -0.4303796135        0.4827177932
 C         -0.1389014416        0.0933798710       -0.4829554413
 N         -1.4979130710       -0.1265872255       -0.0020544545
 O         -2.4074940922        0.1797333239       -0.7514614376
 O         -1.6669037566       -0.5917379221        1.1044885334
 H          2.6597916754        1.6932999219        0.6660858788
 H          3.8188250886        1.1777362201       -0.5556774290
 H          2.1955340827        1.6453919901       -1.0376354373
 H          2.3799870280       -0.8228920696       -1.0468174747
 H          3.0129497123       -0.8033941749        0.5960770859
 H          0.7040973644       -1.4796055452        0.6992365629
 H          0.8473798083        0.1155542058        1.4252179769
 H         -0.0658494802       -0.3876525906       -1.4621274976
 H         -0.0389604893        1.1706223460       -0.6401862457
  16
        -24.12593654
 C          2.7218267902        1.1399439991       -0.5040865682
 C          2.3092487227       -0.1973605113        0.0998350215
 C          0.8644436625       -0.5816209343       -0.2169228292
 C         -0.1394712909        0.3857918293        0.4297170352
 N         -1.4768975764       -0.1098964947        0.1503423934
 O         -2.0099478463        0.2367917224       -0.8847184272
 O         -1.9782758672       -0.8825602986        0.9425675477
 H          2.5147526123        1.1567113429       -1.5713800076
 H          2.1955512470        1.9659334030       -0.0341128441
 H          3.7874116108        1.2984801684       -0.3615750790
 H          2.9542912777       -0.9811633006       -0.3000776084
 H          2.4504900370       -0.1711189210        1.1811433714
 H          0.7119182270       -0.5823287589       -1.2979732100
 H          0.6707056377       -1.5884525115        0.1590739849
 H         -0.0468442345        1.3774863830       -0.0117091112
 H          0.0020054752        0.4037194983        1.5105666055
  16
        -24.12559612
 C          2.8968854549        0.7197448880        0.5143323874
 C          2.2293779593        0.0663179493       -0.6910761169
 C          0.8787815033       -0.5664761084       -0.3574368206
 C         -0.1522616098        0.4736907252        0.0785769919
 N         -1.4986986885       -0.0893128556        0.1181828130
 O         -1.8496486764       -0.8249597683       -0.7800312272
 O         -2.2132255405        0.2240665741        1.0504117281
 H          3.8988047715        1.0496805871        0.2525359407
 H          2.3366767776        1.5858479959        0.8549514957
 H          2.9759611689        0.0117548282        1.3357492469
 H          2.1008080842        0.8057873307       -1.4830332913
 H          2.8824826532       -0.7185444477       -1.0752275114
 H          0.4950744559       -1.0832847139       -1.2389736161
 H          1.0098713683       -1.3032594925        0.4368873868
 H         -0.1763713019        1.2855129749       -0.6551527735
 H          0.0521738928        0.8846487690        1.0671295713
