  11
  -18.5908133100000       0.134029283601482      !
 C          0.4107331469        1.7143001725       -0.1555838310
 C          0.4484556763        0.2798233113        0.3298732826
 H          0.3066121647        0.2243390368        1.4110208389
 C         -0.5433037520       -0.6233049537       -0.3829301050
 Cl        -2.2140141862       -0.1688974482        0.0759931342
 Cl         2.0896067036       -0.4160947264        0.0221080037
 H          0.6187651121        1.7613861305       -1.2212913207
 H         -0.5785845112        2.1247829594        0.0304849384
 H          1.1458494955        2.3131595119        0.3738111011
 H         -0.4686085708       -0.5172739837       -1.4641421608
 H         -0.4122928227       -1.6649223987       -0.0942711651
  11
  -18.5908133000000       0.134027865317903      !
 C          0.4106199959        1.7143918935       -0.1556121659
 C          0.4484366172        0.2799281229        0.3298791800
 H          0.3064651622        0.2243896085        1.4110098633
 C         -0.5431924782       -0.6232071610       -0.3829787859
 Cl        -2.2138875746       -0.1688931613        0.0760168847
 Cl         2.0894867733       -0.4162158808        0.0221122337
 H          1.1457269216        2.3132405755        0.3738196208
 H          0.6188060972        1.7614614468       -1.2213131097
 H         -0.5786930038        2.1249114811        0.0303899520
 H         -0.4685704236       -0.5172607357       -1.4641577969
 H         -0.4119794124       -1.6646676820       -0.0942730181
  11
  -18.5908132700000       0.134023610557720      !
 C          0.4108186641        1.7143819165       -0.1554535453
 C          0.4484295189        0.2797364293        0.3296890315
 H          0.3063730185        0.2244480442        1.4107735748
 C         -0.5434042057       -0.6236012370       -0.3827712649
 Cl        -2.2140529730       -0.1688482528        0.0759364448
 Cl         2.0896945323       -0.4160389919        0.0221116361
 H         -0.5784862887        2.1246655830        0.0307502579
 H          1.1458470575        2.3135804528        0.3738877947
 H          0.6183525593        1.7614679356       -1.2212544073
 H         -0.4689593858       -0.5175241358       -1.4639635042
 H         -0.4126213961       -1.6652656174       -0.0939649786
  11
  -18.5908072300000       0.133169730765509      !
 C          0.9870470180        2.1107408009       -0.3808528055
 C          0.3425188709        0.8648346042        0.1987461116
 H          0.1009827962        0.9972509554        1.2549645741
 C         -0.8930510017        0.4650600632       -0.5838423158
 Cl        -1.7171675873       -0.9395539261        0.1734676732
 Cl         1.5330140044       -0.5018552708        0.1568949333
 H          0.2962582450        2.9450318076       -0.2986482890
 H          1.8937244282        2.3491430451        0.1665112777
 H          1.2394197964        1.9575060122       -1.4258488850
 H         -1.6135623316        1.2811977359       -0.5888047792
 H         -0.6410332078        0.1704667824       -1.6010918605
  11
  -18.5908072100000       0.133166912405157      !
 C          0.9874524251        2.1106688470       -0.3808107576
 C          0.3424163903        0.8649810143        0.1988299845
 H          0.1009565754        0.9973217583        1.2551104911
 C         -0.8931102490        0.4650380855       -0.5837670675
 Cl        -1.7171291195       -0.9397265248        0.1734468881
 Cl         1.5328572564       -0.5017053777        0.1568339605
 H          1.2399582244        1.9575916533       -1.4259304983
 H          0.2965740897        2.9446994621       -0.2985793509
 H          1.8940218794        2.3493505659        0.1666105089
 H         -1.6135303859        1.2812143238       -0.5886399844
 H         -0.6409340198        0.1705918739       -1.6010105597
  11
  -18.5908071900000       0.133164094103952      !
 C          0.9871200729        2.1105274498       -0.3808901889
 C          0.3423699733        0.8647693186        0.1986595894
 H          0.1009107673        0.9974417933        1.2548122386
 C         -0.8931256036        0.4649901506       -0.5840519418
 Cl        -1.7171716828       -0.9395323181        0.1735580544
 Cl         1.5330650028       -0.5017382424        0.1569425469
 H          1.8936220631        2.3491112934        0.1665303125
 H          1.2394905350        1.9573597918       -1.4260015586
 H          0.2962999569        2.9446048326       -0.2986356961
 H         -1.6135486724        1.2811769247       -0.5892812325
 H         -0.6408419549        0.1701787060       -1.6012214029
  11
  -18.5901458900000       6.614160072347106E-002 !
 C          0.4120652379        1.8945505034        0.1877698679
 C          0.5628126689        0.5090848325        0.7834272680
 H          1.1052968836        0.5483412344        1.7306967275
 C         -0.7568610805       -0.2020067113        1.0175924599
 Cl        -1.6765040862       -0.4199150431       -0.5100324749
 Cl         1.5960426047       -0.5092321443       -0.3051163758
 H         -0.1484190121        2.5200901121        0.8771280772
 H          1.3875795566        2.3403394409        0.0185360889
 H         -0.1209955875        1.8462751092       -0.7581775114
 H         -0.6033198379       -1.1987312114        1.4269167899
 H         -1.3879325615        0.3903115465        1.6780043760
  11
  -18.5901458800000       6.614090082035805E-002 !
 C          0.4120958508        1.8946942965        0.1878065050
 C          0.5627564375        0.5091367500        0.7833894995
 H          1.1052372926        0.5483357433        1.7306438337
 C         -0.7568329282       -0.2020852008        1.0176392558
 Cl        -1.6763871302       -0.4199228262       -0.5100420713
 Cl         1.5959252773       -0.5092760697       -0.3051262730
 H          1.3875812213        2.3406052646        0.0185759392
 H         -0.1209926380        1.8464252606       -0.7581234429
 H         -0.1484224233        2.5202875649        0.8771166074
 H         -0.6032361469       -1.1987968892        1.4269544596
 H         -1.3879749955        0.3901912417        1.6780786685
  11
  -18.5901458100000       6.613600170444708E-002 !
 C          0.4123499551        1.8943991889        0.1877969287
 C          0.5625894833        0.5087882649        0.7832019502
 H          1.1048680961        0.5479376081        1.7306048352
 C         -0.7570588633       -0.2023851407        1.0174667730
 Cl        -1.6770668209       -0.4198445112       -0.5099696485
 Cl         1.5966376554       -0.5089740362       -0.3050790078
 H         -0.1205760474        1.8465508565       -0.7581437120
 H         -0.1479011806        2.5195627402        0.8772985902
 H          1.3879480774        2.3403753472        0.0191293706
 H         -0.6036421536       -1.1991785016        1.4264897851
 H         -1.3880004345        0.3896651378        1.6780616312
