  11
  -18.7100134000000       0.100019036289144      !
 C         -1.4340571028       -0.9939443822       -0.0000596389
 S         -0.0000308694        0.0907761948       -0.0000068595
 O         -0.0012065766        0.8787189469        1.2258874493
 O         -0.0005195837        0.8780305217       -1.2263433401
 C          1.4358968380       -0.9915758062        0.0005477514
 H         -1.3889707598       -1.5977155229       -0.8956264069
 H         -1.3918682246       -1.5935237935        0.8983080041
 H         -2.3181092387       -0.3695907443       -0.0028142430
 H          1.3916246498       -1.5958986355       -0.8948191242
 H          2.3190018043       -0.3658841364       -0.0027243455
 H          1.3947812592       -1.5910065664        0.8993144443
  11
  -18.7100133800000       0.100016919518804      !
 C         -1.4339942199       -0.9940729874       -0.0000469186
 S         -0.0000562219        0.0908164017       -0.0000053976
 O         -0.0011665512        0.8787539590        1.2258983850
 O         -0.0004503534        0.8780634131       -1.2263511393
 C          1.4357826086       -0.9916030003        0.0005354602
 H         -1.3925759096       -1.5927846174        0.8990590536
 H         -2.3179732182       -0.3697537835       -0.0042159220
 H         -1.3883060161       -1.5987670097       -0.8950000561
 H          2.3188801364       -0.3659681910       -0.0011007549
 H          1.3936975576       -1.5921709475        0.8983858730
 H          1.3924210565       -1.5946752524       -0.8955912721
  11
  -18.7100133200000       0.100010569477322      !
 C         -1.4339820406       -0.9940456070        0.0000237957
 S         -0.0000547858        0.0908084452       -0.0000433130
 O         -0.0012169191        0.8787137130        1.2258903308
 O         -0.0004163265        0.8780877434       -1.2263516288
 C          1.4357791339       -0.9915917560        0.0005340122
 H         -2.3179618937       -0.3696911923       -0.0036745032
 H         -1.3885281311       -1.5986310899       -0.8950047627
 H         -1.3922724805       -1.5929342196        0.8990185224
 H          1.3925211720       -1.5945244924       -0.8957013410
 H          2.3189227028       -0.3659795974       -0.0008603731
 H          1.3935722126       -1.5923137163        0.8982757826
  11
  -18.7100132900000       0.100007394607393      !
 C         -1.4339050087       -0.9941151080        0.0000261714
 S         -0.0000525752        0.0908560089       -0.0000529859
 O         -0.0012000410        0.8787147721        1.2259060423
 O         -0.0004362651        0.8781250888       -1.2263767694
 C          1.4357071823       -0.9916664309        0.0005677967
 H         -1.3940479986       -1.5905342450        0.9007801420
 H         -2.3179042810       -0.3697815248       -0.0073583863
 H         -1.3865643777       -1.6011623885       -0.8932556378
 H          1.3914627355       -1.5960543924       -0.8946633555
 H          2.3187891340       -0.3660209137       -0.0027968496
 H          1.3944360900       -1.5909255432        0.8993739124
  11
  -18.7100132700000       0.100005278083809      !
 C         -1.4338772870       -0.9941369122        0.0000199315
 S         -0.0000445645        0.0908700313       -0.0000539485
 O         -0.0012046114        0.8787262920        1.2259080550
 O         -0.0004567754        0.8781400998       -1.2263822241
 C          1.4356827023       -0.9917055743        0.0005751691
 H         -1.3941517146       -1.5903385711        0.9008819597
 H         -2.3178561029       -0.3698002423       -0.0076183174
 H         -1.3864206759       -1.6013834376       -0.8930906369
 H          1.3945246894       -1.5908838160        0.8994127485
 H          1.3914647738       -1.5961262177       -0.8945634822
 H          2.3187149783       -0.3660876778       -0.0028706811
  11
  -18.7100132500000       0.100003161604643      !
 C         -1.4340073674       -0.9941524796       -0.0001287948
 S         -0.0001057149        0.0908396991       -0.0000473455
 O         -0.0009419533        0.8787007973        1.2259077013
 O         -0.0005275269        0.8781084740       -1.2263880936
 C          1.4357201562       -0.9915426345        0.0007113195
 H         -2.3182695984       -0.3701286032       -0.0020904038
 H         -1.3892108831       -1.5972264968       -0.8962210331
 H         -1.3911881787       -1.5946226790        0.8977712008
 H          2.3186919362       -0.3657212367       -0.0032964013
 H          1.3949418605       -1.5901518976        0.9000074387
 H          1.3913136864       -1.5966535317       -0.8939806278
  11
  -18.7100132400000       0.100002103381857      !
 C         -1.4340262005       -0.9941095927       -0.0000832779
 S         -0.0001075712        0.0908165826       -0.0000330715
 O         -0.0010262918        0.8787093541        1.2259266456
 O         -0.0004404185        0.8780442860       -1.2263692348
 C          1.4357446350       -0.9915020246        0.0006104118
 H         -1.3917416656       -1.5938953184       -0.8985045454
 H         -1.3889490576       -1.5978263539        0.8954716307
 H         -2.3181189561       -0.3699916046        0.0027466889
 H          2.3186258138       -0.3655281471        0.0029941380
 H          1.3917586965       -1.5948814239        0.8965403563
 H          1.3946517985       -1.5917581137       -0.8974522020
  11
  -18.7100131300000       9.999046367138108E-002 !
 C         -1.4339012382       -0.9941260066       -0.0001684039
 S         -0.0000502599        0.0908573269        0.0000042335
 O         -0.0010623172        0.8787937656        1.2259208564
 O         -0.0005832004        0.8780707132       -1.2263742436
 C          1.4357055291       -0.9916842493        0.0006165561
 H         -1.3922095715       -1.5929079029       -0.8992360037
 H         -1.3883658417       -1.5987758148        0.8947694997
 H         -2.3179115064       -0.3698351020        0.0037980377
 H          1.3891806659       -1.5981103715        0.8942989884
 H          1.3967618285       -1.5888427851       -0.8996136531
 H          2.3187630573       -0.3660975309        0.0077049984
  11
  -18.7100064200000       9.928299729561726E-002 !
 C         -1.4335972818       -0.9944663991       -0.0001083785
 S         -0.0000702272        0.0909917725       -0.0000195183
 O         -0.0010648065        0.8789638289        1.2258850814
 O         -0.0005333041        0.8783142700       -1.2263550323
 C          1.4353675785       -0.9919733998        0.0006316003
 H         -2.3181978736       -0.3710152925        0.0014191504
 H         -1.3901607742       -1.5951013549       -0.8978859546
 H         -1.3886793211       -1.5972612223        0.8961325302
 H          1.3927326843       -1.5927178134        0.8983869445
 H          1.3919534459       -1.5948311452       -0.8956510874
 H          2.3188582453       -0.3669835240       -0.0005557347
  11
  -18.7087102600000       2.518842352476488E-002 !
 C         -1.4411375434       -0.9880393556        0.0000840380
 S         -0.0003382451        0.0885908902       -0.0001429434
 O         -0.0029186522        0.8777414285        1.2254191690
 O         -0.0022724165        0.8773555457       -1.2259176506
 C          1.4474639765       -0.9908913536        0.0007310618
 H         -2.3214418773       -0.3584023237       -0.0012973377
 H         -1.4001084438       -1.5895834808       -0.8974231216
 H         -1.4010320575       -1.5871625738        0.8992968620
 H          1.1043911559       -2.0157636186       -0.0313766621
 H          2.0347786543       -0.7510282690       -0.8753193552
 H          2.0011860844       -0.7944501819        0.9088667098
  11
  -18.7087100000000       2.518149437045661E-002 !
 C         -1.4407230306       -0.9883263457       -0.0002439663
 S         -0.0003103124        0.0887466008        0.0001125862
 O         -0.0029695285        0.8781856908        1.2254830268
 O         -0.0023425901        0.8772039422       -1.2258897391
 C          1.4470586679       -0.9912585879        0.0004198691
 H         -1.4004861793       -1.5870590882       -0.8998824159
 H         -1.3993035434       -1.5902160289        0.8971759853
 H         -2.3209988152       -0.3585267322        0.0015398936
 H          2.0020274135       -0.7942266118       -0.9066650665
 H          2.0331275483       -0.7519614787        0.8772930713
 H          1.1043302803       -2.0162036676        0.0313167314
  11
  -18.7087087900000       2.514927222150861E-002 !
 C         -1.4456946000       -0.9936072890       -0.0000655378
 S          0.0001473098        0.0886225645       -0.0000425785
 O          0.0008649554        0.8778989143        1.2254427619
 O          0.0014413063        0.8772873154       -1.2259031947
 C          1.4427864254       -0.9854744963        0.0006385952
 H         -1.1011120617       -2.0182804067       -0.0107799206
 H         -2.0112465246       -0.7836374464        0.8974966438
 H         -2.0223820569       -0.7692190960       -0.8870512031
 H          1.4023581920       -1.5861917623        0.8987390506
 H          1.4036265579       -1.5855641037       -0.8978730678
 H          2.3221156652       -0.3541218068        0.0013030118
  11
  -18.7087085500000       2.514288595330003E-002 !
 C         -1.4456068526       -0.9937288078       -0.0000854574
 S          0.0001504974        0.0886652899       -0.0000129647
 O          0.0008752611        0.8779772696        1.2254453494
 O          0.0014501049        0.8773245542       -1.2258951730
 C          1.4426891373       -0.9855772028        0.0006199500
 H         -1.1012531035       -2.0185500251       -0.0094452986
 H         -2.0124786194       -0.7826124709        0.8964502203
 H         -2.0212264397       -0.7703222782       -0.8881159157
 H          2.3216788219       -0.3540804767        0.0058816838
 H          1.4002940410       -1.5894086012        0.8966306115
 H          1.4060541080       -1.5825629324       -0.9002177293
