  12
  -17.4768722300000       0.333711851033044      !
 C         -2.1818319162       -0.0309852092       -0.0006230023
 C         -0.6938644093       -0.0401008889        0.0014334122
 C          0.1553983718       -1.1129955058        0.0004700331
 N          1.4234563843       -0.5989717374       -0.0006875822
 C          1.2915361393        0.7444193605       -0.0004382345
 N          0.0393363414        1.1155356239        0.0005214499
 H         -2.5541175834        0.4117023333       -0.9226844520
 H         -2.5593929128       -1.0458943140        0.0862484009
 H         -2.5534579272        0.5661384472        0.8291783079
 H         -0.0374895216       -2.1650942690        0.0012204990
 H          2.2804486836       -1.1273316728       -0.0009661340
 H          2.1218084629        1.4211889398       -0.0007238387
  12
  -17.4768718500000       0.333577687787712      !
 C         -2.1818264758       -0.0309840012        0.0011619320
 C         -0.6938567904       -0.0400917819       -0.0012162075
 C          0.1553991357       -1.1129888193       -0.0005838688
 N          1.4234619516       -0.5989699367        0.0002797867
 C          1.2915202150        0.7444058689        0.0002403233
 N          0.0393307729        1.1155388656       -0.0005242497
 H         -2.5594060830       -1.0456844002       -0.0877156203
 H         -2.5538973809        0.4099101771        0.9241221940
 H         -2.5536179103        0.5676610463       -0.8273195502
 H         -0.0375189871       -2.1651235642       -0.0011429993
 H          2.2805047378       -1.1273019056       -0.0000833827
 H          2.1217598766        1.4211362159        0.0002769837
  12
  -17.4768693900000       0.332710461179244      !
 C         -2.1817454595       -0.0308634449        0.0001718690
 C         -0.6938719674       -0.0401872713        0.0001305654
 C          0.1554389793       -1.1130353502       -0.0000504829
 N          1.4234397745       -0.5989503767       -0.0001784462
 C          1.2914519633        0.7444242212       -0.0002855763
 N          0.0392661125        1.1154582405        0.0001400281
 H         -2.5535265175        0.4920141592        0.8789697138
 H         -2.5538583982        0.4903627649       -0.8795922853
 H         -2.5590280089       -1.0496084091        0.0014014251
 H         -0.0372308277       -2.1651724414        0.0001462156
 H          2.2804672119       -1.1272441840       -0.0000854863
 H          2.1217614858        1.4211313414        0.0000949654
