  11
  -13.8075024900000       0.121824020420713      !
 C         -3.6538245697       -0.0267928525        0.0000208731
 C         -2.2231877900        0.5038157132       -0.0000252567
 C         -1.2448347701       -0.6522175540       -0.0000150669
 I          0.8238371442        0.0225612704        0.0000008715
 H         -4.3562309941        0.8016366136       -0.0000175104
 H         -3.8369235856       -0.6351030015       -0.8825154494
 H         -3.8367540180       -0.6348583859        0.8827375242
 H         -2.0626468423        1.1263818842        0.8825318099
 H         -2.0627929608        1.1261263424       -0.8827663224
 H         -1.3525214387       -1.2686744891       -0.8886467769
 H         -1.3523585216       -1.2684390447        0.8887987702
  11
  -13.8075024000000       0.121812418753866      !
 C         -3.6557863528       -0.0269234420        0.0016671844
 C         -2.2257725184        0.5054354913       -0.0047101237
 C         -1.2455734324       -0.6489515674       -0.0040487140
 I          0.8244384056        0.0220481807        0.0007155262
 H         -3.8403525356       -0.6387016959       -0.8781236686
 H         -3.8356083395       -0.6320406417        0.8870646600
 H         -4.3593549232        0.8005344795        0.0004235127
 H         -2.0631414772        1.1308512350        0.8754015974
 H         -2.0686716890        1.1251757322       -0.8898628942
 H         -1.3581257122       -1.2700845700       -0.8888572956
 H         -1.3476965918       -1.2607274228        0.8883709233
  11
  -13.8075023900000       0.121811129747847      !
 C         -3.6557044090       -0.0268784625       -0.0017853283
 C         -2.2255798730        0.5051760384        0.0051223328
 C         -1.2455711515       -0.6493508525        0.0044174929
 I          0.8244106445        0.0221145219       -0.0007820736
 H         -3.8406799050       -0.6385125336        0.8780149340
 H         -4.3591422685        0.8006976040       -0.0009064048
 H         -3.8352964230       -0.6320703317       -0.8871808169
 H         -2.0686343121        1.1247912889        0.8903992251
 H         -2.0625548379        1.1306357919       -0.8748676762
 H         -1.3474294327       -1.2607684619       -0.8882782857
 H         -1.3590180481       -1.2708053028        0.8888822958
  11
  -13.8073693200000       0.105811344628111      !
 C         -2.8491455199        0.2529121037        0.3588916104
 C         -2.1902991462       -0.0629977215       -0.9768216915
 C         -0.9571994546       -0.9307080298       -0.8394857163
 I          0.6914051288        0.0842816833        0.1623368746
 H         -2.1730595916        0.8190312668        0.9965346490
 H         -3.7466901967        0.8453769319        0.2050975880
 H         -3.1240795086       -0.6634724626        0.8768256013
 H         -1.9382317092        0.8651135535       -1.4939696244
 H         -2.8952790437       -0.6131531079       -1.6065234133
 H         -0.5614854097       -1.2208608155       -1.8088508792
 H         -1.1556367407       -1.8161140893       -0.2413571058
  11
  -13.8073691800000       0.105795670126634      !
 C         -2.8486203217        0.2527695483        0.3589267762
 C         -2.1898356473       -0.0627075374       -0.9769154717
 C         -0.9569178801       -0.9305884791       -0.8395662179
 I          0.6912591049        0.0842515837        0.1623530634
 H         -3.7461436439        0.8452854621        0.2051749802
 H         -3.1235856917       -0.6637242772        0.8767096342
 H         -2.1725623040        0.8187752337        0.9966748522
 H         -1.9376387112        0.8654955796       -1.4938806169
 H         -2.8947964291       -0.6127611590       -1.6067475181
 H         -0.5610297073       -1.2204476469       -1.8089270545
 H         -1.1554573154       -1.8160959863       -0.2416279842
  11
  -13.8073689500000       0.105769924200455      !
 C         -2.8568546796        0.2515066702       -0.3588738926
 C         -2.1947833503       -0.0578666449        0.9767171704
 C         -0.9596927534       -0.9228390083        0.8393354402
 I          0.6930370217        0.0829991805       -0.1623406370
 H         -2.1831171488        0.8167689918       -0.9997404612
 H         -3.1305004764       -0.6674580540       -0.8729047313
 H         -3.7554557536        0.8425271947       -0.2056515484
 H         -2.8970688614       -0.6073934969        1.6099869894
 H         -1.9437588911        0.8728187774        1.4897405690
 H         -1.1568202847       -1.8117007064        0.2458988703
 H         -0.5581958242       -1.2063316396        1.8082122665
  11
  -13.8073686300000       0.105734114203434      !
 C         -2.8490173461        0.2529513933        0.3588918641
 C         -2.1902404390       -0.0630769393       -0.9768232108
 C         -0.9571183835       -0.9307180251       -0.8394870577
 I          0.6913753910        0.0842880585        0.1623368684
 H         -3.1237547346       -0.6634113659        0.8769704794
 H         -2.1729458398        0.8192372252        0.9963882553
 H         -3.7466554482        0.8452922289        0.2050933348
 H         -1.9382065433        0.8649857990       -1.4940816240
 H         -2.8952345699       -0.6133514821       -1.6064187412
 H         -0.5614918442       -1.2209702508       -1.8088614371
 H         -1.1556220269       -1.8160686518       -0.2413016134
  11
  -13.8073685900000       0.105729638806410      !
 C         -2.8490209403        0.2529049165       -0.3589160718
 C         -2.1904276445       -0.0630022475        0.9769142168
 C         -0.9573518248       -0.9306909327        0.8395075174
 I          0.6914261336        0.0842829742       -0.1623475311
 H         -3.7465148511        0.8454680849       -0.2051863588
 H         -2.1728160831        0.8189571273       -0.9964869956
 H         -3.1239739282       -0.6634640642       -0.8768776296
 H         -2.8954813060       -0.6131925130        1.6065222404
 H         -1.9383250343        0.8650800653        1.4941185849
 H         -1.1560742646       -1.8160829471        0.2414491900
 H         -0.5620589743       -1.2210711699        1.8089750208
  11
  -13.8073684300000       0.105711739112530      !
 C         -2.8491333465        0.2529142110       -0.3588689474
 C         -2.1901909747       -0.0630455029        0.9767865598
 C         -0.9571590843       -0.9308173463        0.8393978305
 I          0.6913884541        0.0842993568       -0.1623261298
 H         -3.1242275124       -0.6634492014       -0.8767605074
 H         -3.7465708369        0.8455511596       -0.2050378151
 H         -2.1729960863        0.8188921445       -0.9965634207
 H         -2.8951696839       -0.6131887656        1.6065012457
 H         -1.9379907842        0.8650243366        1.4939614164
 H         -1.1557806234       -1.8161517727        0.2412299379
 H         -0.5615423466       -1.2211349231        1.8087553423
