  16
  -23.1136410000000       0.236738360378267      !
 C         -2.2789275844        0.3011028885        0.1032724269
 C         -1.3668122572        1.3320541499       -0.0476647434
 C         -0.0181255519        1.0508782054       -0.1736199966
 C          0.4328254289       -0.2625301226       -0.1435311677
 C         -0.4863014100       -1.2917819987        0.0116524460
 C         -1.8362155193       -1.0109323793        0.1306040774
 C          1.9050552173       -0.5614213085       -0.2939749174
 O          2.7479308177        0.4021174220        0.3027406436
 H         -3.3317750554        0.5191191279        0.1998255761
 H         -1.7061802233        2.3567140719       -0.0714179857
 H          0.7006101897        1.8482325907       -0.2946261923
 H         -0.1427676544       -2.3158091896        0.0366357360
 H         -2.5437112621       -1.8177222434        0.2498458051
 H          2.1265249205       -1.5625303312        0.1001790662
 H          2.1691232563       -0.5513780371       -1.3573460460
 H          2.5852430458        0.4148558372        1.2558684669
  16
  -23.1136383600000       0.236077922894816      !
 C         -2.2929115536        0.1343342260        0.1331263713
 C         -1.6334231243        1.2990748551       -0.2225857161
 C         -0.2595314515        1.2968117969       -0.3898232142
 C          0.4666799395        0.1271293691       -0.2092610420
 C         -0.2014164716       -1.0384630426        0.1437621919
 C         -1.5738486698       -1.0347589264        0.3173314211
 C          1.9634664047        0.1103418053       -0.4059687540
 O          2.6475739377       -0.7404743331        0.4905828448
 H         -3.3640985276        0.1382067162        0.2670340434
 H         -2.1899473510        2.2131024492       -0.3657677073
 H          0.2531567281        2.2075134919       -0.6639853273
 H          0.3678825081       -1.9459911221        0.2830958985
 H         -2.0824819568       -1.9459384541        0.5941035930
 H          2.1932578193       -0.2821655391       -1.4027147241
 H          2.3613449390        1.1323742976       -0.3445612864
 H          2.5106109214       -0.4218938677        1.3934874392
  16
  -23.1136218900000       0.231999093248645      !
 C         -2.2805256673        0.3005083647       -0.0607682801
 C         -1.3648641658        1.3326083532        0.0570535130
 C         -0.0139310684        1.0520275965        0.1584978078
 C          0.4354904395       -0.2619952180        0.1363828269
 C         -0.4873777744       -1.2925374690        0.0152421841
 C         -1.8392898969       -1.0122048869       -0.0791607736
 C          1.9105206463       -0.5603934876        0.2579889059
 O          2.7415181579        0.4018172972       -0.3570165476
 H         -3.3350374097        0.5180813323       -0.1382244035
 H         -1.7030059380        2.3578267184        0.0733355397
 H          0.7076200039        1.8503241135        0.2543893620
 H         -0.1449625662       -2.3171558188       -0.0029095028
 H         -2.5496995223       -1.8199992222       -0.1716219639
 H          2.1957319446       -0.5488647800        1.3158716666
 H          2.1240125100       -1.5622285569       -0.1386129629
 H          2.5626234363        0.4105902197       -1.3073052782
  16
  -23.1136190300000       0.231298023957339      !
 C         -2.2973173122        0.1005961989       -0.0799562351
 C         -1.6333713643        1.3156529898       -0.1116780308
 C         -0.2540351182        1.3571452124       -0.0067077587
 C          0.4735640853        0.1834583284        0.1393428076
 C         -0.1989564756       -1.0312840118        0.1762653743
 C         -1.5771314080       -1.0734254092        0.0634924937
 C          1.9771291346        0.2207439040        0.2716545368
 O          2.6318401882       -0.8756077412       -0.3319646874
 H         -3.3728777053        0.0691519667       -0.1666263290
 H         -2.1909429567        2.2334491949       -0.2233155888
 H          0.2620767785        2.3058736356       -0.0353094243
 H          0.3710696305       -1.9416240092        0.2920060320
 H         -2.0892283202       -2.0235215976        0.0907776063
 H          2.3650747870        1.1675252788       -0.1278657307
 H          2.2487389415        0.1659973528        1.3317265051
 H          2.4569141796       -0.8626614880       -1.2830052413
  16
  -23.1117525800000       3.209304256476501E-002 !
 C         -2.3023431085        0.0947836996        0.0426683812
 C         -1.6599338669        1.2994012730       -0.1965992027
 C         -0.2796113832        1.3517887447       -0.2455952784
 C          0.4748577761        0.1990881563       -0.0560956758
 C         -0.1728448791       -1.0032456046        0.1819683850
 C         -1.5559302418       -1.0545669862        0.2315979452
 C          1.9792611523        0.2842928621       -0.1168928880
 O          2.5712419559       -0.9704892289        0.1407831838
 H         -3.3804759913        0.0545868934        0.0811620973
 H         -2.2372905699        2.1996896596       -0.3450980144
 H          0.2206393041        2.2912781790       -0.4320136612
 H          0.4168902201       -1.8946829409        0.3286424659
 H         -2.0493246568       -1.9967565989        0.4179282842
 H          2.2685629432        0.6444502346       -1.1161111982
 H          2.3181295051        1.0263053794        0.6216147122
 H          3.5321660947       -0.8801759224        0.1032196673
  16
  -23.1117437200000       3.179355695616756E-002 !
 C         -2.2830497362        0.3169839371        0.0281367023
 C         -1.3451182242        1.3338653743        0.0194413950
 C          0.0070340265        1.0347438418        0.0003191598
 C          0.4317907575       -0.2848073764       -0.0091203798
 C         -0.5147124402       -1.3036332822        0.0005669765
 C         -1.8639032629       -1.0040802882        0.0191787302
 C          1.8968564351       -0.6411939232       -0.0319975893
 O          2.7047745210        0.5156140327       -0.0168890958
 H         -3.3370047635        0.5503310748        0.0423827599
 H         -1.6641221258        2.3654058257        0.0267596075
 H          0.7449207530        1.8216926392       -0.0070204658
 H         -0.1886118748       -2.3337805833       -0.0079612254
 H         -2.5912694741       -1.8020413783        0.0249093645
 H          2.1161608390       -1.2722002222        0.8425799460
 H          2.0973030106       -1.2347746709       -0.9368270807
 H          3.6340395260        0.2523212318       -0.0328110675
