  11
  -12.8803438600000       0.503539602613856      !
 C          1.0969296911       -0.0011097903        0.0542052493
 C         -0.0130051747        1.0512547343       -0.0689501200
 N         -1.0200216342        0.0010249876        0.1377235139
 C         -0.0151364372       -1.0512179181       -0.0689631004
 H          1.5838383811       -0.0016925076        1.0244402926
 H          1.8442515313       -0.0018243211       -0.7341579417
 H         -0.0478732986        1.8193125156        0.7057161787
 H         -0.0456920559        1.5331268988       -1.0520612705
 H         -1.7952440385        0.0018453242       -0.5140005252
 H         -0.0516676722       -1.8191786632        0.7057275335
 H         -0.0488289246       -1.5330471588       -1.0520455642
  11
  -12.8803304800000       0.496460397386144      !
 C          1.0900063544       -0.0011005351       -0.1338761118
 C         -0.0079184683        1.0510782522        0.0707377864
 N         -1.0272690817        0.0010393955       -0.0650783354
 C         -0.0100449061       -1.0510608726        0.0707256617
 H          1.8937725382       -0.0019289789        0.5968391597
 H          1.5037204721       -0.0014921785       -1.1374846210
 H          0.0305485246        1.5305456265        1.0548126316
 H         -0.0983634930        1.8210503283       -0.6974963488
 H         -1.7543187501        0.0017633632        0.6400420562
 H          0.0273954775       -1.5306878139        1.0547831815
 H         -0.1020435040       -1.8207871534       -0.6975559174
