  16
        -21.77668000
 C         -1.7399781084       -1.1900077872        0.0393032873
 O         -1.8037293043        0.1831677254       -0.2991789486
 C         -0.8390521574        0.9872791012        0.3433157690
 C          0.5706560295        0.8512504987       -0.2404113900
 O          1.2063960841       -0.2930207128        0.2974120809
 C          2.5423344431       -0.4361480539       -0.1348618063
 H         -1.9182855762       -1.3289127826        1.1109070982
 H         -0.7684189844       -1.6188787006       -0.2157899926
 H         -2.5264900531       -1.6749801684       -0.5334691982
 H         -1.1851107294        2.0120831312        0.1984575989
 H         -0.8008507559        0.7555384399        1.4155448427
 H          1.1531005295        1.7481339091        0.0137171688
 H          0.5074191951        0.7705488406       -1.3351773844
 H          2.5920987532       -0.5481386252       -1.2234279046
 H          2.9233604334       -1.3329200318        0.3466708594
 H          3.1421313894        0.4305921301        0.1630789392
  16
        -21.77629715
 C         -1.6682871738       -1.1937491300       -0.0302998791
 O         -1.7979406393        0.2158714946       -0.0103041933
 C         -0.6528671037        0.8975474370        0.4595026314
 C          0.5281097827        0.8701671456       -0.5254004725
 O          1.2973183673       -0.3178859828       -0.4901772216
 C          2.2475620089       -0.3726631588        0.5545532137
 H         -0.8540015763       -1.5100215798       -0.6868030759
 H         -2.6157714080       -1.5750619433       -0.4024646518
 H         -1.4855842557       -1.5770059952        0.9799568341
 H         -0.9793494876        1.9301993320        0.5931169287
 H         -0.3460965972        0.4865554488        1.4311399634
 H          1.1750256364        1.7354223150       -0.3340266772
 H          0.1345549131        0.9336841204       -1.5430263991
 H          2.9378763654        0.4752962424        0.4927525225
 H          2.7923872324       -1.3026002941        0.4125203504
 H          1.7714339277       -0.3758959818        1.5393392845
  16
        -21.77569570
 C         -2.5577629611       -0.6590623351        0.1762118741
 O         -1.7835887065        0.4946172778       -0.0947670547
 C         -0.4752255202        0.2414332512       -0.5580737169
 C          0.4744256707       -0.2539571071        0.5484354519
 O          1.7865379847       -0.4928178653        0.0879811263
 C          2.5557646708        0.6690661265       -0.1609314305
 H         -2.5529189842       -1.3390926100       -0.6813426797
 H         -3.5681983688       -0.2994444645        0.3550593496
 H         -2.1975241026       -1.1891267930        1.0617370365
 H         -0.4878739577       -0.4913566688       -1.3770934666
 H         -0.1288026324        1.2026688935       -0.9444000103
 H          0.1346829049       -1.2206075156        0.9272744480
 H          0.4780328084        0.4738598395        1.3720363553
 H          2.1956336879        1.2128077639       -1.0381287698
 H          3.5684919744        0.3175947519       -0.3428617179
 H          2.5450046688        1.3341634574        0.7082020917
  16
        -21.77550695
 C         -2.3871976290       -0.9484306532       -0.0203855472
 O         -1.8542999035        0.3585435096       -0.1279919129
 C         -0.4891938552        0.4092426219       -0.4801997184
 C          0.4470404952       -0.0321165602        0.6618669372
 O          1.7629352443        0.4560420387        0.5193552632
 C          2.5113568540       -0.1596610749       -0.5124247523
 H         -2.1919994687       -1.5228371757       -0.9318243420
 H         -3.4589461078       -0.8208525554        0.1102301165
 H         -1.9750663462       -1.4810955003        0.8406891099
 H         -0.3143902781       -0.1963449821       -1.3806468646
 H         -0.2889155386        1.4596435904       -0.7062519757
 H          0.4638479743       -1.1277944753        0.7475993858
 H          0.0798382428        0.3982718305        1.5970180832
 H          2.5022493379       -1.2487951834       -0.4008775621
 H          3.5272388417        0.2117547541       -0.4029068104
 H          2.1292161815        0.1081107180       -1.5010192843
  16
        -21.77547042
 C         -1.9838753275       -0.8768495911       -0.4181177343
 O         -1.2926336963       -0.2458363958        0.6425588542
 C         -0.6416500834        0.9562946555        0.2926409593
 C          0.4934688630        0.7904410059       -0.7364642113
 O          1.3392286749       -0.3140491225       -0.4998670399
 C          2.0800656436       -0.2472198802        0.7033375341
 H         -1.2890607738       -1.2994848879       -1.1488126017
 H         -2.6580612095       -0.1714184237       -0.9149227186
 H         -2.5600777527       -1.6772461095        0.0398231722
 H         -1.3634923581        1.6801798355       -0.1124285403
 H         -0.2483068779        1.3379573629        1.2368582716
 H          1.0753976228        1.7233047146       -0.7528522471
 H          0.0828872054        0.6107884205       -1.7320229477
 H          2.6166587731        0.7046241301        0.7755700691
 H          2.7909791872       -1.0687528766        0.6580433910
 H          1.4329868732       -0.3724492854        1.5756824839
  16
        -21.77531594
 C         -2.4462455574       -0.9306203723       -0.2597569522
 O         -1.9213897916        0.2416847753        0.3364794612
 C         -0.6966476521        0.6808012673       -0.2028777392
 C          0.5015159754       -0.1858214849        0.2026626760
 O          1.6742596043        0.4879423467       -0.2013557126
 C          2.8564050298       -0.2097339545        0.1351455953
 H         -1.8468895376       -1.8109838314       -0.0127723325
 H         -2.5001108068       -0.8208966566       -1.3473521870
 H         -3.4471732376       -1.0468232607        0.1484829010
 H         -0.7503958329        0.7352388305       -1.2983221837
 H         -0.5435465062        1.6871953481        0.1923425914
 H          0.4549911622       -1.1736572001       -0.2791687206
 H          0.4953287810       -0.3284756743        1.2937364312
 H          2.9360316721       -0.3428720184        1.2191992316
 H          3.6798809171        0.4015883508       -0.2239305149
 H          2.8823739441       -1.1915907848       -0.3496371953
  16
        -21.77513329
 C         -2.9717713869       -0.3074186283        0.1448057433
 O         -1.7475806669        0.1069228245       -0.4282358297
 C         -0.6285798645       -0.2409266198        0.3574184007
 C          0.6279476092        0.2484679307       -0.3531907240
 O          1.7476459019       -0.1078469392        0.4276783366
 C          2.9722772985        0.3012816764       -0.1482007110
 H         -2.9994196843       -1.3959696400        0.2600887436
 H         -3.7496334514        0.0122057968       -0.5434662420
 H         -3.1229192408        0.1606948000        1.1231148938
 H         -0.6923873007        0.2242730074        1.3514323010
 H         -0.5719054112       -1.3306398829        0.4910075798
 H          0.5754757522        1.3390319572       -0.4810027986
 H          0.6873556445       -0.2118089385       -1.3497618932
 H          3.0067042877        1.3901780482       -0.2588200377
 H          3.1163623773       -0.1634162580       -1.1291118925
 H          3.7508370565       -0.0266145846        0.5354459801
  16
        -21.77426228
 C         -2.7058783410       -0.6808178057        0.0946342494
 O         -1.4261369550       -0.3505424926       -0.4011997645
 C         -0.7656979108        0.6223459564        0.3816807603
 C          0.6410124794        0.8252780557       -0.1652054093
 O          1.4741621475       -0.2083990832        0.3175222720
 C          2.7784855152       -0.1612551970       -0.2204810500
 H         -3.1129593807       -1.4223125643       -0.5876109698
 H         -3.3549079429        0.2016369625        0.1167832476
 H         -2.6377381724       -1.1012784703        1.1036506190
 H         -1.3211430410        1.5704854584        0.3435861047
 H         -0.6979304307        0.2867362805        1.4255067675
 H          1.0310112572        1.8002504624        0.1607523591
 H          0.6042191329        0.8013180135       -1.2628524437
 H          3.3208097497       -0.9906498218        0.2256865401
 H          3.2703334451        0.7846379997        0.0324382415
 H          2.7565546821       -0.2743585506       -1.3096376747
  16
        -21.77388189
 C         -2.1881444925       -0.9799709926        0.3273552500
 O         -1.5905533136       -0.0465148998       -0.5509385035
 C         -0.8056312780        0.9428288780        0.0753350330
 C          0.5371188342        0.4495797015        0.6210640195
 O          1.3737265937        0.0939858631       -0.4600611247
 C          2.6401408680       -0.3728255784       -0.0484910069
 H         -2.8704055225       -1.5656202614       -0.2838500309
 H         -2.7454693416       -0.4660803805        1.1180132533
 H         -1.4477627496       -1.6455490358        0.7801226816
 H         -0.6128856053        1.6810028350       -0.7053728415
 H         -1.3693556915        1.4071330820        0.8967171098
 H          0.3955595085       -0.4147362106        1.2858568074
 H          0.9991570456        1.2604959637        1.2033448084
 H          2.5456971329       -1.2727599598        0.5695155735
 H          3.1735192204        0.3971064330        0.5201091004
 H          3.1872990032       -0.6065372566       -0.9578445306
  16
        -21.77386945
 C         -2.5125199326       -0.8495341939       -0.2578587891
 O         -1.3760156058       -0.2872582083        0.3613105455
 C         -0.6002579418        0.5004191165       -0.5178152760
 C          0.6063434832        1.0582590996        0.2417184243
 O          1.5539070168        0.0934962116        0.6398917967
 C          2.3431136301       -0.4366349207       -0.4070110297
 H         -3.0258615047       -1.4201290720        0.5114738257
 H         -2.2239729590       -1.5125040070       -1.0812544341
 H         -3.1736621254       -0.0659159142       -0.6444503229
 H         -0.2760167606       -0.1047965130       -1.3766728822
 H         -1.1985174907        1.3427711924       -0.8956709401
 H          0.2542275558        1.5040468858        1.1738535203
 H          1.0882287282        1.8257373424       -0.3801915406
 H          3.1128489750       -1.0331335054        0.0764196461
 H          2.8067557242        0.3677070096       -0.9882460844
 H          1.7583843551       -1.0753790244       -1.0750393458
  16
        -21.77353687
 C         -1.8191100403       -1.2435417808       -0.2080548711
 O         -1.8320174602        0.1651619845       -0.0814933495
 C         -0.6695056868        0.7148861443        0.5047346018
 C          0.5118088702        0.8485939410       -0.4826667492
 O          1.7627349559        0.5264943285        0.0908574567
 C          2.0308777123       -0.8595122269        0.1787304714
 H         -2.7736412780       -1.5104443013       -0.6541349156
 H         -1.7245570850       -1.7188000373        0.7745373609
 H         -1.0055790293       -1.5878222719       -0.8534103707
 H         -0.9709461181        1.6976604990        0.8698204287
 H         -0.3559617336        0.1085068910        1.3649325211
 H          0.6085443357        1.8818134695       -0.8187205077
 H          0.3233131174        0.2166383252       -1.3607979301
 H          1.3038511255       -1.3761290899        0.8121365180
 H          3.0205118379       -0.9436217209        0.6200859771
 H          2.0298964346       -1.3170865660       -0.8166190764
  16
        -21.77353338
 C         -1.7838078895       -1.2622586664       -0.0690116271
 O         -1.8267608803        0.1486896955        0.0191509873
 C         -0.6551903426        0.8045698150       -0.4223205539
 C          0.4876820489        0.7951793865        0.6187771646
 O          1.7563877674        0.5177365082        0.0610433980
 C          2.0056602456       -0.8518663101       -0.1890765100
 H         -0.9978105861       -1.6861563972        0.5627414043
 H         -1.6239305346       -1.5805696097       -1.1051140290
 H         -2.7534939137       -1.6113656940        0.2761775698
 H         -0.2965753432        0.3534782111       -1.3572785348
 H         -0.9663236802        1.8285131961       -0.6330674257
 H          0.2528496287        0.0688814132        1.4084007319
 H          0.5890676569        1.7794415887        1.0777791053
 H          3.0143719373       -0.9020922192       -0.5904549907
 H          1.3025878804       -1.2676812768       -0.9167114795
 H          1.9487446181       -1.4315114156        0.7389816517
  16
        -21.77311426
 C         -1.6150202470       -1.2603861253        0.1333021657
 O         -1.3839561090       -0.0458371924       -0.5565304149
 C         -0.8746676802        1.0018124659        0.2536540205
 C          0.6468963611        1.1823294347        0.1244471086
 O          1.3830833811        0.0491075436        0.5571662649
 C          1.8297222902       -0.7937769874       -0.4889664785
 H         -1.9210769944       -1.9800200953       -0.6226082368
 H         -2.4169114263       -1.1372687967        0.8691957109
 H         -0.7138921800       -1.6136538087        0.6410358354
 H         -1.3560408220        1.9228895157       -0.0878326784
 H         -1.1346543383        0.8254702967        1.3020501323
 H          0.9459992248        2.0139547868        0.7692154623
 H          0.9003732035        1.4204573545       -0.9132654374
 H          1.0009327631       -1.1319990430       -1.1160447499
 H          2.3008117249       -1.6465569343       -0.0055122920
 H          2.5640469376       -0.2740266588       -1.1136864608
