  10
  -13.8372055800000       5.423010910483430E-002 !
 C         -1.8442003926       -0.8434793398        0.4577481006
 S         -0.9005259577        0.4171661863       -0.4695558154
 S          0.8994707508        0.4148674674        0.4710722337
 C          1.8462876966       -0.8397892809       -0.4608768643
 H         -2.8496880231       -0.8115111628        0.0545300568
 H         -1.8439891697       -0.5810103249        1.5099128517
 H         -1.4009136170       -1.8199796310        0.2954173625
 H          2.8461344522       -0.8205242988       -0.0432702548
 H          1.8630019247       -0.5624765393       -1.5091695354
 H          1.3941503062       -1.8152790036       -0.3183783428
  10
  -13.8372046600000       5.417733965561105E-002 !
 C         -1.8508757346       -0.8367695946        0.4606345965
 S         -0.8989047776        0.4132286017       -0.4721250223
 S          0.8985276469        0.4121288962        0.4739332701
 C          1.8516225364       -0.8329714430       -0.4642804175
 H         -2.8471577864       -0.8228335286        0.0342398632
 H         -1.8772709589       -0.5518544842        1.5066184433
 H         -1.3950247782       -1.8120664390        0.3294798130
 H          1.8782572535       -0.5432042077       -1.5088945236
 H          1.3965353216       -1.8092532582       -0.3379544150
 H          2.8477593214       -0.8203822189       -0.0375694604
  10
  -13.8372046600000       5.417733965561105E-002 !
 C         -1.8512576693       -0.8360399803        0.4610381535
 S         -0.8987352518        0.4129406858       -0.4725620903
 S          0.8982992974        0.4117035920        0.4743377440
 C          1.8521447757       -0.8322424510       -0.4646139570
 H         -1.3931405449       -1.8108750963        0.3346817145
 H         -2.8460675727       -0.8254841301        0.0312112713
 H         -1.8819633779       -0.5479744430        1.5060082031
 H          1.3964031277       -1.8085276524       -0.3407342836
 H          2.8476554380       -0.8208369209       -0.0363783143
 H          1.8804107265       -0.5405877304       -1.5086663171
  10
  -13.8372046100000       5.417447322244373E-002 !
 C         -1.8513594817       -0.8359663443        0.4610426971
 S         -0.8985859550        0.4128147447       -0.4725863004
 S          0.8982568380        0.4117475302        0.4743935900
 C          1.8520264625       -0.8321402557       -0.4646929763
 H         -2.8462034465       -0.8253634170        0.0312079178
 H         -1.8820507407       -0.5478576932        1.5060421943
 H         -1.3932797276       -1.8108773273        0.3347041576
 H          1.3963403358       -1.8083945393       -0.3405215774
 H          2.8476089149       -0.8206771012       -0.0366464025
 H          1.8801067731       -0.5406024291       -1.5087829607
  10
  -13.8372044400000       5.416472848380636E-002 !
 C         -1.8511185350       -0.8360666170        0.4610179025
 S         -0.8986774632        0.4129258683       -0.4726075224
 S          0.8982617503        0.4117514589        0.4743999205
 C          1.8519514524       -0.8322745309       -0.4646281691
 H         -1.3927798286       -1.8107922897        0.3349506646
 H         -2.8458384118       -0.8258350175        0.0309744667
 H         -1.8819700524       -0.5477613884        1.5059047653
 H          1.8803953523       -0.5406562672       -1.5086733367
 H          1.3960899948       -1.8084806577       -0.3408309410
 H          2.8474025402       -0.8211120504       -0.0363253539
  10
  -13.8372044000000       5.416243585878883E-002 !
 C         -1.8512680750       -0.8360858262        0.4609860581
 S         -0.8986630715        0.4128673346       -0.4725627064
 S          0.8983278693        0.4118205938        0.4743817929
 C          1.8519433868       -0.8322747414       -0.4646511600
 H         -1.3929912454       -1.8108755126        0.3348662783
 H         -2.8460262076       -0.8257479755        0.0309758695
 H         -1.8821551137       -0.5477990138        1.5058967260
 H          2.8476034976       -0.8207390721       -0.0367810000
 H          1.8799052121       -0.5410464827       -1.5088472377
 H          1.3962802748       -1.8085354548       -0.3403059670
  10
  -13.8372043200000       5.415785090007238E-002 !
 C         -1.8515663272       -0.8358996138        0.4610570304
 S         -0.8986154690        0.4127544544       -0.4725592133
 S          0.8983180984        0.4117381502        0.4743820703
 C          1.8521725441       -0.8320666235       -0.4647244539
 H         -1.8820350425       -0.5478199865        1.5060477192
 H         -1.3937476853       -1.8108851777        0.3345478122
 H         -2.8464660126       -0.8250607822        0.0313492226
 H          1.3968662582       -1.8084745165       -0.3400980483
 H          2.8479939856       -0.8201827212       -0.0372515926
 H          1.8796247539       -0.5408055355       -1.5088827260
  10
  -13.8372039600000       5.413722338833079E-002 !
 C         -1.8514098547       -0.8359434998        0.4610867982
 S         -0.8986897861        0.4128988861       -0.4725590652
 S          0.8982596171        0.4116484970        0.4743254214
 C          1.8522761530       -0.8321302170       -0.4646501047
 H         -1.8820028108       -0.5478507074        1.5060522086
 H         -1.3933382573       -1.8108241038        0.3347941579
 H         -2.8462377365       -0.8253592003        0.0313101317
 H          2.8479366037       -0.8202651660       -0.0368246781
 H          1.8800546003       -0.5408343113       -1.5087954334
 H          1.3969493008       -1.8085571166       -0.3402672582
  10
  -13.8372038600000       5.413149491841065E-002 !
 C         -1.8517924426       -0.8357189610        0.4611493071
 S         -0.8986011933        0.4126992556       -0.4725631441
 S          0.8982616779        0.4116060629        0.4743690479
 C          1.8524753510       -0.8318886258       -0.4647775181
 H         -1.8835283622       -0.5467441655        1.5058307923
 H         -1.3932775837       -1.8105486484        0.3360071370
 H         -2.8461823549       -0.8257362719        0.0303585763
 H          1.8792423721       -0.5408771468       -1.5090289899
 H          1.3979574113       -1.8086452547       -0.3396643806
 H          2.8484516270       -0.8189929740       -0.0377186904
  10
  -13.8371905400000       5.337385516004447E-002 !
 C         -1.9040799348       -0.8397876509       -0.0444261331
 S         -0.7743480758        0.4133055731        0.6574152556
 S          0.7739539039        0.4156935236       -0.6567399811
 C          1.9048897144       -0.8374514565        0.0430520477
 H         -2.1379538669       -0.5695352726       -1.0681196866
 H         -2.7941543036       -0.8090711584        0.5730373509
 H         -1.4387454953       -1.8179780739        0.0084736522
 H          2.1368114365       -0.5697969513        1.0679802276
 H          2.7957674280       -0.8034813138       -0.5731701329
 H          1.4411648407       -1.8162306983       -0.0133096050
  10
  -13.8371903700000       5.336425443413677E-002 !
 C         -1.9055308410       -0.8382883246       -0.0444408390
 S         -0.7737006639        0.4123650642        0.6582041434
 S          0.7733837484        0.4152350547       -0.6573877017
 C          1.9061674475       -0.8361002209        0.0427488487
 H         -2.1475339005       -0.5614437920       -1.0646104989
 H         -2.7911562502       -0.8139080549        0.5797926783
 H         -1.4376326811       -1.8157618055       -0.0018943257
 H          1.4432391546       -1.8154103143       -0.0112159269
 H          2.1394322765       -0.5665930953        1.0669110118
 H          2.7961472977       -0.8024394943       -0.5747937759
  10
  -13.8371847900000       5.305008153411502E-002 !
 C         -1.9075884621       -0.8366569030       -0.0438996831
 S         -0.7733687313        0.4118439915        0.6587734101
 S          0.7729121200        0.4140451506       -0.6581639242
 C          1.9085015921       -0.8342817292        0.0426477195
 H         -2.1513151084       -0.5579487664       -1.0631478234
 H         -2.7920284433       -0.8121045653        0.5820063849
 H         -1.4407876702       -1.8147767858       -0.0038337513
 H          2.7946035963       -0.8050279871       -0.5806375226
 H          1.4444182690       -1.8134601657       -0.0024546130
 H          2.1487541937       -0.5589179502        1.0635967950
  10
  -13.8371841400000       5.301360482065054E-002 !
 C         -1.9090840884       -0.8378833204       -0.0437738062
 S         -0.7748779105        0.4115855857        0.6571750402
 S          0.7748815014        0.4157213555       -0.6559768421
 C          1.9090176632       -0.8359594048        0.0413148194
 H         -1.4422984182       -1.8160366022       -0.0006690341
 H         -2.1517095502       -0.5614670973       -1.0639553838
 H         -2.7943303352       -0.8115185207        0.5809398275
 H          1.4443767244       -1.8148459360       -0.0067049640
 H          2.1491747062       -0.5637731290        1.0631257372
 H          2.7954641712       -0.8050927075       -0.5815519039
  10
  -13.8371841300000       5.301304383644045E-002 !
 C         -1.9065652058       -0.8382003354       -0.0418960677
 S         -0.7749682963        0.4149316243        0.6568783029
 S          0.7732602659        0.4118293393       -0.6578644109
 C          1.9101272906       -0.8345671001        0.0439228745
 H         -2.7930479337       -0.8095559061        0.5809221079
 H         -1.4404410933       -1.8163910352        0.0054518812
 H         -2.1473268449       -0.5655371476       -1.0633105462
 H          1.4442218788       -1.8132657786        0.0052012146
 H          2.1549997438       -0.5544022533        1.0625030716
 H          2.7934842063       -0.8090264142       -0.5835491480
  10
  -13.8371838700000       5.299846032903148E-002 !
 C         -1.9075284914       -0.8368640351       -0.0438091128
 S         -0.7734735718        0.4119832720        0.6585815649
 S          0.7730131753        0.4140687961       -0.6580047300
 C          1.9084649918       -0.8344417149        0.0426435230
 H         -1.4435062460       -1.8159708759        0.0032093924
 H         -2.1454368791       -0.5622801896       -1.0655348338
 H         -2.7950263957       -0.8071505782        0.5774906996
 H          2.1454038747       -0.5613401664        1.0649859303
 H          2.7962242697       -0.8021914112       -0.5781643442
 H          1.4458281469       -1.8141114144       -0.0064479171
  10
  -13.8371836600000       5.298668427110628E-002 !
 C         -1.9079008936       -0.8373936522       -0.0439642180
 S         -0.7738185343        0.4116640997        0.6580318452
 S          0.7737502868        0.4150350933       -0.6570688899
 C          1.9080906180       -0.8352100291        0.0420413440
 H         -2.7982175398       -0.8024798477        0.5733075552
 H         -1.4460930304       -1.8173884574        0.0098149244
 H         -2.1405755639       -0.5668813483       -1.0680986325
 H          2.7943059774       -0.8058839320       -0.5811318858
 H          1.4422664613       -1.8134559484       -0.0052919074
 H          2.1482240190       -0.5620752555        1.0636794281
  10
  -13.8371831100000       5.295585461367602E-002 !
 C         -1.9112257280       -0.8365208673       -0.0438161962
 S         -0.7746802333        0.4104226708        0.6577739912
 S          0.7750249462        0.4156498411       -0.6562180732
 C          1.9105128153       -0.8347906446        0.0407641640
 H         -1.4432570433       -1.8143256349       -0.0106957145
 H         -2.1600754427       -0.5533736775       -1.0604603734
 H         -2.7926940915       -0.8155276694        0.5862872059
 H          2.7862054508       -0.8209914539       -0.5975216135
 H          1.4368386009       -1.8100378867        0.0151848518
 H          2.1705116079       -0.5493700149        1.0540768671
  10
  -13.8371823500000       5.291328314935807E-002 !
 C         -1.9056623193       -0.8396215630       -0.0414492219
 S         -0.7761973940        0.4161772015        0.6556156321
 S          0.7739891723        0.4119206565       -0.6569566164
 C          1.9101197019       -0.8359012944        0.0440355181
 H         -2.7919952849       -0.8120162158        0.5816995192
 H         -1.4367396820       -1.8164054309        0.0075665205
 H         -2.1466596985       -0.5687292111       -1.0635514010
 H          2.1348681453       -0.5693940730        1.0708318580
 H          2.8041332914       -0.7935103087       -0.5671185995
 H          1.4535268908       -1.8178188927       -0.0175868662
  10
  -13.8361324900000       1.742137621469043E-002 !
 C         -1.8548925448       -0.8329057878        0.4634549284
 S         -0.9010602141        0.4150274936       -0.4708935116
 S          0.8955192429        0.4085912451        0.4726942757
 C          1.8682165804       -0.8325320613       -0.4656147180
 H         -1.3831815426       -1.8033251511        0.3542851009
 H         -2.8438280135       -0.8369245565        0.0199616418
 H         -1.9021876913       -0.5334425464        1.5045648154
 H          2.2481818627       -1.5585558240        0.2439261389
 H          2.6825422890       -0.3184583382       -0.9636614486
 H          1.2159727255       -1.3048512892       -1.1906261718
  10
  -13.8361311400000       1.739650644884130E-002 !
 C         -1.9066160985       -0.8363180275       -0.0362978288
 S         -0.7760704105        0.4221110324        0.6558104575
 S          0.7675539148        0.4030517919       -0.6615039797
 C          1.9256485840       -0.8324781200        0.0457065720
 H         -1.4217431235       -1.8065377747       -0.0237222427
 H         -2.1818269923       -0.5471069789       -1.0445504046
 H         -2.7743027882       -0.8349616558        0.6130727960
 H          1.4679876274       -1.2691412354        0.9256602794
 H          2.8438899741       -0.3198677422        0.3090717695
 H          2.1101303051       -1.5870451757       -0.7105245211
