  13
    -1.556641 !GC
 C          0.0000000000        0.0000000000        0.0000000000
 C          1.4992155444        0.0000000000        0.0000000000
 C          2.1976476059        1.1351867576        0.0000000000
 C          2.1917703980       -1.2816221739       -0.0488466069
 C          1.8132404204       -2.3449352023       -0.7490305982
 H         -0.3767436444       -0.5997685811        0.8264264003
 H         -0.3783171003       -0.4224698445       -0.9288042801
 H         -0.3794495113        1.0127100546        0.1040606204
 H          3.2733157377        1.1398262493       -0.0563860233
 H          1.7182580608        2.0985475706        0.0330267685
 H          3.1183613738       -1.3192711648        0.5108029065
 H          2.3861527839       -3.2563018257       -0.7353739548
 H          0.9357749187       -2.3464731897       -1.3720401022
  13
    -1.542441 !GC
 C          0.0000000000        0.0000000000        0.0000000000
 C          1.4991914467        0.0000000000        0.0000000000
 C          2.1981705137        1.1350150924        0.0000000000
 C          2.1913326709       -1.2818840792       -0.0485361378
 C          1.8183920095       -2.3417108754       -0.7559929282
 H         -0.3789021633       -0.6078818400        0.8197239343
 H         -0.3742180171       -0.4170860575       -0.9337011334
 H         -0.3811161236        1.0119502157        0.1067884998
 H          3.2736478658        1.1389843317       -0.0564781967
 H          1.7196642277        2.0984167448        0.0363776810
 H          3.1139885751       -1.3222997579        0.5182250019
 H          2.3897978375       -3.2537608323       -0.7403992284
 H          0.9426577818       -2.3421550243       -1.3820571317
  13
    -1.510395 !GC
 C          0.0000000000        0.0000000000        0.0000000000
 C          1.4993365373        0.0000000000        0.0000000000
 C          2.1977790410        1.1353007638        0.0000000000
 C          2.1908043647       -1.2821077327       -0.0496491107
 C          1.8223035283       -2.3388931420       -0.7647910720
 H         -0.3758927417       -0.6027562283        0.8252116974
 H         -0.3762900678       -0.4256675247       -0.9279317118
 H         -0.3831707006        1.0111633224        0.1027660333
 H          3.2732544652        1.1402562101       -0.0604254449
 H          1.7183016189        2.0987130530        0.0373749154
 H          3.1079425829       -1.3265258306        0.5252243098
 H          2.3958027506       -3.2497782476       -0.7524131404
 H          0.9545891069       -2.3347689987       -1.4007424454
  13
    -1.160039 !GC
 C          0.0000000000        0.0000000000        0.0000000000
 C          1.4927776877        0.0000000000        0.0000000000
 C          2.2091823930        1.1254837348        0.0000000000
 C          2.2229442195       -1.2564352366        0.0172667926
 C          3.4619834495       -1.4448843266       -0.4246817872
 H         -0.3705528042        0.4483446172       -0.9201765420
 H         -0.3802428453        0.5741715222        0.8428745240
 H         -0.3681006822       -1.0195587214        0.0668467324
 H          3.2874778287        1.1047328150        0.0272998239
 H          1.7540132006        2.1008724284       -0.0075634172
 H          1.6619400216       -2.0969667604        0.4067659910
 H          3.9264509933       -2.4152003529       -0.3760825553
 H          4.0541464882       -0.6621089437       -0.8640709838
  13
    -1.110015 !GC
 C          0.0000000000        0.0000000000        0.0000000000
 C          1.4947415828        0.0000000000        0.0000000000
 C          2.2126070396        1.1218367322        0.0000000000
 C          2.1494656945       -1.3035051596       -0.0061275774
 C          1.5493082464       -2.4844603287        0.0850702963
 H         -0.3679081307        0.5438296517        0.8691404656
 H         -0.3948729947       -1.0117199681        0.0188526352
 H         -0.3615048379        0.5109731500       -0.8905994068
 H          3.2900502245        1.1063890917       -0.0023282925
 H          1.7529702872        2.0953494137        0.0075288460
 H          3.2283719109       -1.2624299655       -0.0933441168
 H          2.1143870982       -3.4006791234        0.0691032646
 H          0.4832761169       -2.5889427261        0.1841313881
  13
    -1.096733 !GC
 C          0.0000000000        0.0000000000        0.0000000000
 C          1.4946136508        0.0000000000        0.0000000000
 C          2.2124711693        1.1219775146        0.0000000000
 C          2.1490248952       -1.3036180244       -0.0051248051
 C          1.5491783754       -2.4843855054        0.0910557867
 H         -0.3846289365       -1.0157351566        0.0277037113
 H         -0.3787184939        0.5038543472       -0.8881282298
 H         -0.3598588517        0.5371367894        0.8762839233
 H          3.2897955574        1.1068784290        0.0004028422
 H          1.7528521715        2.0952868524        0.0061258460
 H          3.2274048560       -1.2628880048       -0.0964667373
 H          2.1143746525       -3.4005658167        0.0753372737
 H          0.4832903969       -2.5887900534        0.1944190246
  13
    -1.049444 !GC
 C          0.0000000000        0.0000000000        0.0000000000
 C          1.4973997678        0.0000000000        0.0000000000
 C          2.1940286546        1.1389256410        0.0000000000
 C          2.2641292258       -1.2330841136        0.0235059980
 C          3.5395281410       -1.3568724156       -0.3308095628
 H         -0.3823858233        1.0134620005       -0.0690069284
 H         -0.3803865900       -0.4630543029        0.9071908249
 H         -0.3672831619       -0.5694605332       -0.8512241074
 H          3.2721641898        1.1375933050        0.0293250064
 H          1.7181927692        2.1046019890       -0.0146711406
 H          1.7097538030       -2.1090402415        0.3352420043
 H          4.0370935233       -2.3107974835       -0.2897599774
 H          4.1318614381       -0.5312622107       -0.6812611320
  13
    -1.047639 !GC
 C          0.0000000000        0.0000000000        0.0000000000
 C          1.4973795812        0.0000000000        0.0000000000
 C          2.1942955633        1.1386678930        0.0000000000
 C          2.2641928884       -1.2330120738       -0.0251836494
 C          3.5418519781       -1.3557996396        0.3204458552
 H         -0.3625786715       -0.4587651099       -0.9205110306
 H         -0.3798402780        1.0186778106        0.0304347402
 H         -0.3875472712       -0.5602707894        0.8425494742
 H          3.2724456179        1.1368056873       -0.0298663652
 H          1.7189670450        2.1044134693        0.0191970724
 H          1.7097120489       -2.1088790812       -0.3392326948
 H          4.0409857840       -2.3087546425        0.2727876895
 H          4.1369094454       -0.5287380878        0.6650039566
  13
    -0.824531 !GC
 C          0.0000000000        0.0000000000        0.0000000000
 C          1.4971883141        0.0000000000        0.0000000000
 C          2.1939058375        1.1386801795        0.0000000000
 C          2.2640468503       -1.2329825840       -0.0241978662
 C          3.5409763791       -1.3561174099        0.3243230721
 H         -0.3624686783        1.0272340257        0.0530120753
 H         -0.3841671400       -0.5395501286        0.8598707937
 H         -0.3824610389       -0.4456036608       -0.9131878806
 H          3.2723766949        1.1367292882       -0.0291608443
 H          1.7181002449        2.1046314303        0.0147975614
 H          1.7087132102       -2.1095509657       -0.3342733219
 H          4.0392865171       -2.3094932260        0.2800603702
 H          4.1358105066       -0.5290796642        0.6691285285
  13
    -0.816623 !GC
 C          0.0000000000        0.0000000000        0.0000000000
 C          1.4971845291        0.0000000000        0.0000000000
 C          2.1936152122        1.1388895030        0.0000000000
 C          2.2638902772       -1.2330809782        0.0224725003
 C          3.5389835527       -1.3570020407       -0.3333074511
 H         -0.3773017358       -0.5724581342       -0.8442906125
 H         -0.3847695335        1.0130386146       -0.0568031657
 H         -0.3669328089       -0.4637643375        0.9134262255
 H          3.2720511475        1.1374605687        0.0291803232
 H          1.7174286027        2.1046946860       -0.0161627831
 H          1.7091623019       -2.1093177476        0.3324247963
 H          4.0361542464       -2.3110978892       -0.2941764704
 H          4.1310906671       -0.5314875119       -0.6839811702
  13
    -0.811262 !GC
 C          0.0000000000        0.0000000000        0.0000000000
 C          1.4973726421        0.0000000000        0.0000000000
 C          2.1942877980        1.1389226667        0.0000000000
 C          2.2628356554       -1.2337304987       -0.0250020474
 C          3.5361722066       -1.3616844868        0.3343689182
 H         -0.3785229611        1.0175318525        0.0739564232
 H         -0.3614856851       -0.5475450870        0.8707540282
 H         -0.3896384782       -0.4715010349       -0.8945570773
 H          3.2723031511        1.1376129373       -0.0311843434
 H          1.7188161158        2.1045652880        0.0221220909
 H          1.7111063471       -2.1062524091       -0.3528605952
 H          4.0327466688       -2.3159603016        0.2883591826
 H          4.1295846164       -0.5385732119        0.6907844152
  13
    -0.657092 !GC
 C          0.0000000000        0.0000000000        0.0000000000
 C          1.4946040622        0.0000000000        0.0000000000
 C          2.2126385120        1.1216719506        0.0000000000
 C          2.1502800306       -1.3023981050        0.0434919120
 C          1.8157198118       -2.3237889089        0.8231629169
 H         -0.3684380194        0.6299471345        0.8080876359
 H         -0.3950806891       -1.0050897087        0.1202555577
 H         -0.3595984605        0.4175097464       -0.9388757264
 H          3.2884506931        1.1067697390        0.0578992165
 H          1.7537784287        2.0949125718       -0.0272653136
 H          3.0181281922       -1.3886732249       -0.5985319760
 H          2.3627808564       -3.2506891003        0.7948855443
 H          1.0105842921       -2.2722518401        1.5350335676
  13
    -0.492837 !GC
 C          0.0000000000        0.0000000000        0.0000000000
 C          1.4925864205        0.0000000000        0.0000000000
 C          2.2087930104        1.1254994547        0.0000000000
 C          2.2227996727       -1.2563731790        0.0182696086
 C          3.4629706140       -1.4445935074       -0.4208518634
 H         -0.3704439207        0.5809741055        0.8428651058
 H         -0.3845731105       -1.0135426586        0.0685076343
 H         -0.3629161277        0.4596155430       -0.9172177674
 H          3.2873700877        1.1046781485        0.0280285351
 H          1.7532603294        2.1010339403       -0.0119642409
 H          1.6629557700       -2.0957316444        0.4115587334
 H          3.9283819435       -2.4141152339       -0.3689518296
 H          4.0555654706       -0.6620851659       -0.8599813142
  13
    -0.487442 !GC
 C          0.0000000000        0.0000000000        0.0000000000
 C          1.4945972493        0.0000000000        0.0000000000
 C          2.2126363540        1.1219266225        0.0000000000
 C          2.1488585170       -1.3029836730        0.0437192167
 C          1.8049042600       -2.3293682478        0.8126426253
 H         -0.3843041093       -1.0080297865        0.1289607029
 H         -0.3768909034        0.4096188631       -0.9363207549
 H         -0.3617164363        0.6243387851        0.8153864306
 H          3.2884282711        1.1075099529        0.0565613428
 H          1.7535054743        2.0951472452       -0.0243392675
 H          3.0251483361       -1.3853911283       -0.5872291110
 H          2.3504375273       -3.2570094106        0.7824591595
 H          0.9921141043       -2.2825470806        1.5159755718
  13
    -0.320133 !GC
 C          0.0000000000        0.0000000000        0.0000000000
 C          1.4928016592        0.0000000000        0.0000000000
 C          2.2092069827        1.1255320965        0.0000000000
 C          2.2230379496       -1.2563805213        0.0193225502
 C          3.4636247587       -1.4444961119       -0.4183329432
 H         -0.3755636457       -1.0165559770        0.0770518230
 H         -0.3801828639        0.4531572278       -0.9135423177
 H         -0.3632675807        0.5747969486        0.8494635311
 H          3.2874855940        1.1048126936        0.0281737358
 H          1.7540279189        2.1009265487       -0.0104774591
 H          1.6636298181       -2.0953545137        0.4143359728
 H          3.9295059439       -2.4138031057       -0.3645464345
 H          4.0565394503       -0.6619339739       -0.8572424786
  13
    -0.283943 !GC
 C          0.0000000000        0.0000000000        0.0000000000
 C          1.4973757963        0.0000000000        0.0000000000
 C          2.1940049445        1.1388772671        0.0000000000
 C          2.2640363107       -1.2331477407        0.0214884861
 C          3.5382097997       -1.3572900543       -0.3371763571
 H         -0.3774097505       -0.4537712955        0.9134610683
 H         -0.3804466066       -0.5637830163       -0.8483880351
 H         -0.3721003736        1.0183630751       -0.0613711991
 H          3.2721587989        1.1375131551        0.0284514127
 H          1.7181676289        2.1045551706       -0.0117503243
 H          1.7084283466       -2.1103787953        0.3275181808
 H          4.0346288515       -2.3120839276       -0.3014405854
 H          4.1299822864       -0.5315606011       -0.6881006169
  13
    -0.283653 !GC
 C          0.0000000000        0.0000000000        0.0000000000
 C          1.4974035527        0.0000000000        0.0000000000
 C          2.1943192867        1.1387162667        0.0000000000
 C          2.2642858015       -1.2330248174       -0.0231652821
 C          3.5407160915       -1.3559888885        0.3268210652
 H         -0.3676342335       -0.5608966590        0.8572192829
 H         -0.3797803233       -0.4727816104       -0.9027231355
 H         -0.3828060977        1.0141569093        0.0582862501
 H          3.2724982338        1.1368569533       -0.0289930173
 H          1.7189074739        2.1045121497        0.0162778866
 H          1.7087511587       -2.1102156432       -0.3314803294
 H          4.0387508625       -2.3097112320        0.2844737379
 H          4.1352107830       -0.5286566913        0.6718974132
  13
    -0.278449 !GC
 C          0.0000000000        0.0000000000        0.0000000000
 C          1.4971813749        0.0000000000        0.0000000000
 C          2.1938980466        1.1389349482        0.0000000000
 C          2.2626896649       -1.2337009135       -0.0240156992
 C          3.5352639473       -1.3620098871        0.3382355228
 H         -0.3784149647       -0.5646682746        0.8498271050
 H         -0.3658995932       -0.4722155753       -0.9093818531
 H         -0.3845598999        1.0144771561        0.0456025883
 H          3.2722350996        1.1375361582       -0.0304796275
 H          1.7179371783        2.1047905481        0.0177232046
 H          1.7100653377       -2.1069592588       -0.3479180130
 H          4.0309781947       -2.3167161356        0.2956051824
 H          4.1284438016       -0.5389203354        0.6948993909
  13
    -0.133801 !GC
 C          0.0000000000        0.0000000000        0.0000000000
 C          1.4991751714        0.0000000000        0.0000000000
 C          2.1977900842        1.1350903847        0.0000000000
 C          2.1915119431       -1.2826655687       -0.0028983723
 C          1.6142500877       -2.4787967301        0.0009837987
 H         -0.3713965601       -0.5040917309       -0.8929160918
 H         -0.3765504215        1.0212013560       -0.0186066546
 H         -0.3860371615       -0.5106525642        0.8750646687
 H          3.2748777745        1.1385405690       -0.0011058659
 H          1.7181710746        2.0988152692        0.0054303704
 H          3.2725389288       -1.2157903300        0.0040041442
 H          2.1996964307       -3.3822928395        0.0051760092
 H          0.5458963302       -2.6066589035        0.0055090259
  13
    -0.133623 !GC
 C          0.0000000000        0.0000000000        0.0000000000
 C          1.4993904100        0.0000000000        0.0000000000
 C          2.1982031586        1.1351262411        0.0000000000
 C          2.1917495631       -1.2826914527       -0.0018234787
 C          1.6144114835       -2.4786648574        0.0016224316
 H         -0.3765256023        1.0210540401        0.0141982340
 H         -0.3721151690       -0.5002751991        0.8948996901
 H         -0.3863804385       -0.5130696815       -0.8733268756
 H          3.2749942065        1.1386688328       -0.0009500828
 H          1.7189651076        2.0987051675        0.0069194998
 H          3.2728955221       -1.2159430224        0.0039305259
 H          2.1999115228       -3.3822502710        0.0053893259
 H          0.5459113033       -2.6063883183        0.0052570525
  13
    -0.070401 !GC
 C          0.0000000000        0.0000000000        0.0000000000
 C          1.4992029278        0.0000000000        0.0000000000
 C          2.1981032528        1.1349290449        0.0000000000
 C          2.1917674549       -1.2816407277       -0.0493271459
 C          1.8171180448       -2.3422873352       -0.7549888168
 H         -0.3615627547       -0.3968259322       -0.9502509752
 H         -0.3758816458        1.0180060992        0.0876184379
 H         -0.3966618665       -0.6070737544        0.8054904726
 H          3.2736573526        1.1388463762       -0.0581872241
 H          1.7193605200        2.0984947697        0.0335647073
 H          3.1177444133       -1.3201728343        0.5123431981
 H          2.3899769795       -3.2537705805       -0.7415850710
 H          0.9406438555       -2.3426142889       -1.3805704784
  13
    -0.030669 !GC
 C          0.0000000000        0.0000000000        0.0000000000
 C          1.4993434764        0.0000000000        0.0000000000
 C          2.1977860009        1.1350461089        0.0000000000
 C          2.1922076029       -1.2814665707       -0.0498283742
 C          1.8159338054       -2.3428132022       -0.7541161122
 H         -0.3599149396        1.0254064582        0.0986904357
 H         -0.3944596928       -0.5786371970        0.8292502421
 H         -0.3810703382       -0.3937900218       -0.9376395748
 H          3.2734343793        1.1394283825       -0.0591271165
 H          1.7184097598        2.0985880618        0.0344369254
 H          3.1169187799       -1.3207101914        0.5131920412
 H          2.3885680421       -3.2543342469       -0.7411050233
 H          0.9409105516       -2.3423363447       -1.3801158098
  13
    -0.028508 !GC
 C          0.0000000000        0.0000000000        0.0000000000
 C          1.4991959887        0.0000000000        0.0000000000
 C          2.1980963672        1.1351837071        0.0000000000
 C          2.1903640760       -1.2822814937       -0.0491475915
 C          1.8235104740       -2.3383646160       -0.7656356341
 H         -0.3775309757        1.0116171846        0.1418564268
 H         -0.3574674917       -0.5968999630        0.8408414759
 H         -0.3987481095       -0.4165904169       -0.9178912994
 H          3.2734788813        1.1396735088       -0.0594858268
 H          1.7192500522        2.0986213396        0.0365015556
 H          3.1087857911       -1.3259741500        0.5243994766
 H          2.3972369496       -3.2492101624       -0.7528525801
 H          0.9543433063       -2.3350542592       -1.4011942806
  13
    -0.008538 !GC
 C          0.0000000000        0.0000000000        0.0000000000
 C          1.4946010342        0.0000000000        0.0000000000
 C          2.2129219116        1.1217117786        0.0000000000
 C          2.1490208386       -1.3036532240       -0.0056123099
 C          1.5488773336       -2.4844619392        0.0833360645
 H         -0.3695500255        0.5093768160       -0.8893356414
 H         -0.3762812403        0.5274659110        0.8759452002
 H         -0.3772982950       -1.0187145082        0.0065728333
 H          3.2902133006        1.1058316643       -0.0013918309
 H          1.7539405084        2.0952212984        0.0066687042
 H          3.2281278346       -1.2627899990       -0.0948284970
 H          2.1140876658       -3.4007097275        0.0674594914
 H          0.4820528562       -2.5891037097        0.1838718903
  13
    -0.003948 !GC
 C          0.0000000000        0.0000000000        0.0000000000
 C          1.4946086042        0.0000000000        0.0000000000
 C          2.2125677676        1.1218417735        0.0000000000
 C          2.1492993039       -1.3028104478        0.0428999398
 C          1.8075613707       -2.3286923866        0.8137913782
 H         -0.3670563592        0.4087016724       -0.9406414688
 H         -0.3785529301        0.6199627620        0.8114045424
 H         -0.3774690244       -1.0118620494        0.1145880558
 H          3.2886121616        1.1072582455        0.0548777363
 H          1.7533616243        2.0951297888       -0.0271588405
 H          3.0220235305       -1.3865497535       -0.5929905609
 H          2.3522320150       -3.2570780442        0.7816063659
 H          0.9949605554       -2.2819617931        1.5178405831
