  16
    -0.686237 !GC
 C          0.0000000000        0.0000000000        0.0000000000
 C          1.4988081554        0.0000000000        0.0000000000
 C          2.2310494302        1.1772167944        0.0000000000
 C          3.6162883095        1.1406501669       -0.0335780674
 C          4.2870592032       -0.0646584537       -0.0682113275
 C          3.5619128175       -1.2539380027       -0.0695458132
 C          2.1762688598       -1.2140131804       -0.0355319213
 O          4.2558651219       -2.4263608899       -0.1018561081
 H         -0.3877515705        0.1646666131       -1.0022668866
 H         -0.3809087151       -0.9501742697        0.3687549401
 H         -0.3735067439        0.7907380709        0.6478624631
 H          1.7208213688        2.1283476293        0.0283138440
 H          4.1787899266        2.0620737527       -0.0305761348
 H          5.3642686523       -0.1120355178       -0.0920441547
 H          1.6090463635       -2.1347207449       -0.0332394212
 H          3.6473119219       -3.1801978637       -0.0926626596
  16
    -0.296218 !GC
 C          0.0000000000        0.0000000000        0.0000000000
 C          1.4993530650        0.0000000000        0.0000000000
 C          2.2446884685        1.1653182465        0.0000000000
 C          3.6328093223        1.1106333109       -0.0075278666
 C          4.2868552954       -0.1004509514       -0.0150885978
 C          3.5457504752       -1.2836438815       -0.0139621097
 C          2.1635562866       -1.2263599719       -0.0075806079
 O          4.3130784433       -2.4095949189       -0.0218247795
 H         -0.3774157276        0.4297514832        0.9268358006
 H         -0.3814372399        0.5970195167       -0.8262999733
 H         -0.3858204894       -1.0110712307       -0.0930095232
 H          1.7490620783        2.1244014221        0.0036699390
 H          4.2062567960        2.0250819174       -0.0107448383
 H          5.3598702822       -0.1871101907       -0.0244324605
 H          1.5591665715       -2.1256133516       -0.0091221724
 H          5.2540928285       -2.1774142675       -0.0378553850
  16
    -0.290259 !GC
 C          0.0000000000        0.0000000000        0.0000000000
 C          1.4991776947        0.0000000000        0.0000000000
 C          2.2436269978        1.1657150651        0.0000000000
 C          3.6316506425        1.1120327291       -0.0089106287
 C          4.2866413971       -0.0984906681       -0.0186702981
 C          3.5464377679       -1.2820528508       -0.0195706802
 C          2.1642169884       -1.2257569169       -0.0098886657
 O          4.3149485041       -2.4072012530       -0.0284538290
 H         -0.3745028189        0.3111493128        0.9739228187
 H         -0.3766365660        0.7071695456       -0.7377468644
 H         -0.3929081637       -0.9862364281       -0.2272335281
 H          1.7471618789        2.1243756010        0.0075495022
 H          4.2041780599        2.0268040017       -0.0091869727
 H          5.3597834722       -0.1844921864       -0.0266329051
 H          1.5607005342       -2.1252522638       -0.0129465439
 H          5.2561258138       -2.1750339016       -0.0391036930
  16
    -0.203304 !GC
 C          0.0000000000        0.0000000000        0.0000000000
 C          1.4983491646        0.0000000000        0.0000000000
 C          2.2084644565        1.1959385301        0.0000000000
 C          3.5904612110        1.1887031198       -0.0245771223
 C          4.2884808771       -0.0059126864       -0.0492106401
 C          3.5893451858       -1.2063848593       -0.0491133582
 C          2.1987887604       -1.1953438416       -0.0247966787
 O          4.2163025878       -2.4163822456       -0.0706435123
 H         -0.3830991368       -0.0533605135        1.0164813098
 H         -0.3827476623        0.9044497408       -0.4682722003
 H         -0.3744931314       -0.8587649785       -0.5531372076
 H          1.6741230517        2.1341365572        0.0146705970
 H          4.1347490690        2.1212713255       -0.0262188738
 H          5.3686282475       -0.0047454768       -0.0666362078
 H          1.6790828218       -2.1414725851       -0.0203115631
 H          5.1774565838       -2.2981252957       -0.0921539203
  16
    -0.147034 !GC
 C          0.0000000000        0.0000000000        0.0000000000
 C          1.4992783749        0.0000000000        0.0000000000
 C          2.2342770816        1.1733674580        0.0000000000
 C          3.6218152809        1.1325297655        0.0180090744
 C          4.2876614453       -0.0728006724        0.0366627988
 C          3.5581192088       -1.2623392467        0.0385828411
 C          2.1745494836       -1.2188842633        0.0192403828
 O          4.3356325628       -2.3810588914        0.0560972785
 H         -0.3703849175        0.0675672204       -1.0230075682
 H         -0.3873549621       -0.9144931154        0.4409768254
 H         -0.3869797484        0.8521077618        0.5528400969
 H          1.7279633542        2.1266391116       -0.0177183502
 H          4.1866917451        2.0523011199        0.0128926890
 H          5.3615643065       -0.1490528732        0.0455008480
 H          1.5810275458       -2.1253595952        0.0157992389
 H          5.2748978632       -2.1407431135        0.0600698046
  16
    -0.086793 !GC
 C          0.0000000000        0.0000000000        0.0000000000
 C          1.4988288465        0.0000000000        0.0000000000
 C          2.2317955329        1.1767584333        0.0000000000
 C          3.6171475969        1.1391487714       -0.0295573956
 C          4.2871734861       -0.0666258676       -0.0597997070
 C          3.5613323541       -1.2555106286       -0.0600599037
 C          2.1756676994       -1.2145340706       -0.0305582513
 O          4.2543373799       -2.4286543453       -0.0876258917
 H         -0.3830868328        0.8452738147        0.5675965612
 H         -0.3730093709        0.0907668507       -1.0204771126
 H         -0.3859099818       -0.9207046473        0.4261764007
 H          1.7222724474        2.1282488546        0.0244381189
 H          4.1803880251        2.0600407472       -0.0272679104
 H          5.3642156686       -0.1145978269       -0.0806727317
 H          1.6077137580       -2.1347691753       -0.0295342971
 H          3.6444882002       -3.1814190475       -0.0720146417
  16
    -0.063937 !GC
 C          0.0000000000        0.0000000000        0.0000000000
 C          1.4991855169        0.0000000000        0.0000000000
 C          2.2434585461        1.1658201342        0.0000000000
 C          3.6314733919        1.1123572398       -0.0096792950
 C          4.2866819652       -0.0980937582       -0.0201757255
 C          3.5466134483       -1.2817255695       -0.0210500159
 C          2.1643708220       -1.2256533501       -0.0108243857
 O          4.3152862633       -2.4067080337       -0.0308416553
 H         -0.3684123444       -0.9974850635       -0.2430701702
 H         -0.3885275635        0.2695887756        0.9780178484
 H         -0.3871754637        0.6883297361       -0.7462910039
 H          1.7468268507        2.1243638952        0.0080824018
 H          4.2038760031        2.0272531207       -0.0089831170
 H          5.3599035495       -0.1839368417       -0.0290431099
 H          1.5609653952       -2.1253090056       -0.0134524923
 H          5.2562667186       -2.1743724603       -0.0416882270
  16
    -0.046189 !GC
 C          0.0000000000        0.0000000000        0.0000000000
 C          1.4993245515        0.0000000000        0.0000000000
 C          2.2441179504        1.1656791072        0.0000000000
 C          3.6322106562        1.1117808474       -0.0107923131
 C          4.2868577345       -0.0989647093       -0.0219959570
 C          3.5463286156       -1.2825048846       -0.0219759438
 C          2.1640910272       -1.2259980925       -0.0116357939
 O          4.3144666999       -2.4078755919       -0.0337600779
 H         -0.3881161649       -1.0019113829       -0.1615581989
 H         -0.3773910326        0.3701753199        0.9520873651
 H         -0.3791976795        0.6516481408       -0.7846067448
 H          1.7478758197        2.1245761515        0.0070036697
 H          4.2050244889        2.0266615644       -0.0142718485
 H          5.3600143138       -0.1852135621       -0.0334387888
 H          1.5602730943       -2.1255764471       -0.0122437904
 H          5.2556871794       -2.1759096590       -0.0453394285
  16
    -0.046100 !GC
 C          0.0000000000        0.0000000000        0.0000000000
 C          1.4988003331        0.0000000000        0.0000000000
 C          2.2312195095        1.1771135488        0.0000000000
 C          3.6164828645        1.1403200175       -0.0328117099
 C          4.2870489097       -0.0650716075       -0.0667055905
 C          3.5617665780       -1.2542830014       -0.0680676336
 C          2.1761326663       -1.2141280838       -0.0345986366
 O          4.2555604296       -2.4268691377       -0.0995051426
 H         -0.3937331027       -0.9371451288        0.3802065094
 H         -0.3689373714        0.8090905323        0.6318494768
 H         -0.3792934222        0.1702526587       -1.0048225371
 H          1.7211465104        2.1283696340        0.0277802109
 H          4.1790930924        2.0616335266       -0.0307817140
 H          5.3641967049       -0.1126192322       -0.0896339966
 H          1.6087842183       -2.1346765963       -0.0327286409
 H          3.6468215737       -3.1807447800       -0.0901118641
  16
    -0.032071 !GC
 C          0.0000000000        0.0000000000        0.0000000000
 C          1.4992339646        0.0000000000        0.0000000000
 C          2.2443083039        1.1652864669        0.0000000000
 C          3.6323658028        1.1107101913       -0.0089847377
 C          4.2865833974       -0.1002557231       -0.0186225346
 C          3.5457635008       -1.2834413801       -0.0184548679
 C          2.1636290257       -1.2262193723       -0.0094975390
 O          4.3133389575       -2.4092461883       -0.0268634535
 H         -0.3760717984       -1.0202845525       -0.0608309812
 H         -0.3692086908        0.4183625458        0.9372562840
 H         -0.3983758210        0.5817837113       -0.8230119510
 H          1.7486844462        2.1240493703        0.0128231275
 H          4.2056152255        2.0250556035       -0.0046538952
 H          5.3595079802       -0.1868206920       -0.0248928784
 H          1.5594571057       -2.1254055912       -0.0135597546
 H          5.2543122565       -2.1769223639       -0.0433990310
  16
    -0.020891 !GC
 C          0.0000000000        0.0000000000        0.0000000000
 C          1.4987265262        0.0000000000        0.0000000000
 C          2.2211513134        1.1847650807        0.0000000000
 C          3.6061282144        1.1608335728       -0.0007315107
 C          4.2884823382       -0.0391701821       -0.0011772595
 C          3.5743237192       -1.2343021368       -0.0006248689
 C          2.1869966900       -1.2070956864       -0.0001423202
 O          4.2784170321       -2.4010220653       -0.0003440738
 H         -0.3637011275        1.0202633622        0.1319674249
 H         -0.3903575478       -0.3727303976       -0.9427327522
 H         -0.3881492847       -0.5983606743        0.8192327507
 H          1.7004711846        2.1305677402       -0.0055954398
 H          4.1605389293        2.0870029707       -0.0046649001
 H          5.3662883495       -0.0766343698       -0.0038134710
 H          1.6301630316       -2.1340473047       -0.0003051503
 H          3.6756047637       -3.1597613746        0.0064550637
  16
    -0.019225 !GC
 C          0.0000000000        0.0000000000        0.0000000000
 C          1.4987827961        0.0000000000        0.0000000000
 C          2.2218434230        1.1843481630        0.0000000000
 C          3.6068735084        1.1595262102       -0.0008045288
 C          4.2884619447       -0.0409365899       -0.0011280192
 C          3.5736758731       -1.2357009413        0.0004905227
 C          2.1864202297       -1.2075695234        0.0002459777
 O          4.2767966377       -2.4030211126        0.0013162330
 H         -0.3652771018       -0.4907347147        0.9038272825
 H         -0.3830157117        1.0182390519        0.0104029325
 H         -0.3936402670       -0.5290049724       -0.8607476282
 H          1.7019385590        2.1303129778       -0.0003029836
 H          4.1619877455        2.0853182658       -0.0001320773
 H          5.3660680968       -0.0789651048       -0.0020467367
 H          1.6289242550       -2.1342528430       -0.0009168429
 H          3.6726598321       -3.1605267219        0.0142318529
  16
    -0.014234 !GC
 C          0.0000000000        0.0000000000        0.0000000000
 C          1.4992054511        0.0000000000        0.0000000000
 C          2.2437377993        1.1656472058        0.0000000000
 C          3.6317637450        1.1118597009       -0.0122490423
 C          4.2865772510       -0.0987639500       -0.0255296237
 C          3.5463299386       -1.2822938714       -0.0264682710
 C          2.1641592257       -1.2258552481       -0.0135516208
 O          4.3147131575       -2.4075178032       -0.0387981312
 H         -0.3867808746        0.6173718125       -0.8060841972
 H         -0.3651268416       -1.0162016744       -0.1582295466
 H         -0.3918306871        0.3510994180        0.9497280296
 H          1.7475258981        2.1242063779        0.0161576872
 H          4.2043967148        2.0266285314       -0.0081797306
 H          5.3596487933       -0.1849260775       -0.0338990290
 H          1.5605545659       -2.1253659183       -0.0166804276
 H          5.2558950905       -2.1754091579       -0.0508827697
  16
    -0.013442 !GC
 C          0.0000000000        0.0000000000        0.0000000000
 C          1.4987621049        0.0000000000        0.0000000000
 C          2.2210925804        1.1848004187        0.0000000000
 C          3.6060824370        1.1609696213       -0.0048255387
 C          4.2885049163       -0.0390767892       -0.0095419738
 C          3.5744430174       -1.2342468449       -0.0089989707
 C          2.1871221701       -1.2071077108       -0.0047278263
 O          4.2786005699       -2.4008958230       -0.0129151683
 H         -0.3700028395        1.0236446644        0.0706588822
 H         -0.3908399478       -0.4393990977       -0.9126651703
 H         -0.3813139311       -0.5484083180        0.8577741405
 H          1.7003991106        2.1304511424        0.0035727324
 H          4.1604346600        2.0872991324       -0.0034478322
 H          5.3663265434       -0.0765399384       -0.0134151795
 H          1.6303273518       -2.1342367584       -0.0046263773
 H          3.6758966608       -3.1595429808       -0.0063891048
  16
    -0.012498 !GC
 C          0.0000000000        0.0000000000        0.0000000000
 C          1.4992062081        0.0000000000        0.0000000000
 C          2.2441975351        1.1653543648        0.0000000000
 C          3.6322451345        1.1108881633       -0.0056460922
 C          4.2866310959       -0.0999718210       -0.0117629617
 C          3.5458521852       -1.2831880454       -0.0115573410
 C          2.1636765967       -1.2261142920       -0.0058349020
 O          4.3135460254       -2.4089116764       -0.0165194827
 H         -0.3636828220        0.6370212760       -0.8081673343
 H         -0.3806849407       -1.0014953013       -0.1925473961
 H         -0.3994478961        0.3688912957        0.9374293674
 H          1.7483464071        2.1242022283        0.0042158763
 H          4.2053983503        2.0252314767       -0.0056597516
 H          5.3596253526       -0.1863777247       -0.0176269362
 H          1.5595945191       -2.1252864055       -0.0098266155
 H          5.2545236788       -2.1765381769       -0.0316218695
  16
    -0.011270 !GC
 C          0.0000000000        0.0000000000        0.0000000000
 C          1.4993323738        0.0000000000        0.0000000000
 C          2.2439495028        1.1657842282        0.0000000000
 C          3.6320324272        1.1121060732       -0.0115609660
 C          4.2868966171       -0.0985666642       -0.0235014235
 C          3.5465031539       -1.2821768247       -0.0234552508
 C          2.1642439287       -1.2258941130       -0.0125714552
 O          4.3148014890       -2.4073805875       -0.0361477871
 H         -0.3821007970        0.6628954704       -0.7741554140
 H         -0.3892746164       -0.9999951644       -0.1683335355
 H         -0.3734060302        0.3595668848        0.9577613221
 H          1.7475404824        2.1245647034        0.0075366027
 H          4.2047211172        2.0271150493       -0.0140678466
 H          5.3601298852       -0.1846561279       -0.0358492823
 H          1.5605383372       -2.1256325285       -0.0127493953
 H          5.2558250047       -2.1752465819       -0.0479235467
  16
    -0.011254 !GC
 C          0.0000000000        0.0000000000        0.0000000000
 C          1.4988733830        0.0000000000        0.0000000000
 C          2.2216437976        1.1847357519        0.0000000000
 C          3.6067053381        1.1605837810       -0.0026070567
 C          4.2887294039       -0.0396555204       -0.0045011297
 C          3.5742421510       -1.2347692993       -0.0030294267
 C          2.1868895132       -1.2073513705       -0.0018856346
 O          4.2779670603       -2.4017036545       -0.0054682017
 H         -0.3774298352       -0.5747838632        0.8442514404
 H         -0.3911037850        1.0115347378        0.0599822438
 H         -0.3743933905       -0.4660033484       -0.9098793924
 H          1.7011871668        2.1307765292       -0.0061435524
 H          4.1614139113        2.0868474479       -0.0097441899
 H          5.3665776714       -0.0773808718       -0.0106439723
 H          1.6297458436       -2.1343854187        0.0004235193
 H          3.6748620427       -3.1602186764        0.0010074606
  16
    -0.005955 !GC
 C          0.0000000000        0.0000000000        0.0000000000
 C          1.4987748476        0.0000000000        0.0000000000
 C          2.2220144548        1.1842464141        0.0000000000
 C          3.6070531256        1.1592084679       -0.0000377913
 C          4.2884186863       -0.0413284492        0.0003775881
 C          3.5734944393       -1.2360250092        0.0019701715
 C          2.1862603451       -1.2076694895        0.0011806639
 O          4.2764362611       -2.4034976551        0.0036694753
 H         -0.3713851091        1.0228966868       -0.0520496162
 H         -0.3710611925       -0.5161849339       -0.8863176439
 H         -0.3993373113       -0.4838466478        0.8832513616
 H          1.7022772034        2.1303297821       -0.0008380532
 H          4.1623007192        2.0848746955       -0.0003367149
 H          5.3659456440       -0.0795154995        0.0003621646
 H          1.6286472000       -2.1341999581       -0.0004048142
 H          3.6721062038       -3.1610358195        0.0167846059
  16
    -0.000000 !GC
 C          0.0000000000        0.0000000000        0.0000000000
 C          1.4983769210        0.0000000000        0.0000000000
 C          2.2085782808        1.1958730409        0.0000000000
 C          3.5905433703        1.1885554916       -0.0278972064
 C          4.2883510375       -0.0061445109       -0.0560705524
 C          3.5891736049       -1.2065874115       -0.0560081535
 C          2.1986964846       -1.1954219510       -0.0284408618
 O          4.2159631890       -2.4166305522       -0.0807201304
 H         -0.3952990692        0.8587170599       -0.5330324378
 H         -0.3712919925       -0.9076636070       -0.4763334712
 H         -0.3734042383        0.0085157798        1.0219054912
 H          1.6745504601        2.1339459867        0.0233140410
 H          4.1349825145        2.1211042287       -0.0252021646
 H          5.3684398183       -0.0051474065       -0.0737575370
 H          1.6789204043       -2.1415840882       -0.0241943919
 H          5.1770907971       -2.2984225728       -0.1039350899
