  16
  -23.1320400100000       0.143440906851666      !
 C         -2.5353671931       -1.0208561712       -0.0007661479
 C         -1.2367711251       -0.2725936941        0.0011412391
 C         -1.2022188027        1.1145345756        0.0003477754
 C          0.0097699300        1.7852798356       -0.0001703828
 C          1.2000579579        1.0861041684       -0.0004770244
 C          1.1779482569       -0.3059904915       -0.0002061118
 C         -0.0376859684       -0.9749969620        0.0008184249
 O          2.3706906278       -0.9650998837       -0.0001368727
 H         -2.6229213486       -1.6206472054       -0.9052747990
 H         -2.5857504281       -1.6944847543        0.8527439369
 H         -3.3768564415       -0.3354408458        0.0445720916
 H         -2.1255530779        1.6741680556        0.0012255946
 H          0.0274770035        2.8647227947        0.0001600512
 H          2.1528519765        1.5915786429       -0.0006334420
 H         -0.0574131005       -2.0561855537        0.0016336271
 H          2.2284045930       -1.9237048802       -0.0004500055
  16
  -23.1320398600000       0.143418140394146      !
 C         -2.5353779905       -1.0208456683       -0.0011856783
 C         -1.2367776297       -0.2725909121        0.0014733520
 C         -1.2022383386        1.1145238138        0.0006753413
 C          0.0097578753        1.7852612188       -0.0003642710
 C          1.2000709478        1.0860900172       -0.0006296864
 C          1.1779706171       -0.3059867168       -0.0000602551
 C         -0.0376877726       -0.9749788466        0.0010594241
 O          2.3707199419       -0.9651081035       -0.0002391261
 H         -2.5827246921       -1.7009270091        0.8473405943
 H         -3.3765440398       -0.3357254300        0.0524351704
 H         -2.6265096754       -1.6135426301       -0.9100773110
 H         -2.1255554374        1.6741091331        0.0017797287
 H          0.0274731643        2.8646647344       -0.0001384403
 H          2.1528425195        1.5915362410       -0.0006453684
 H         -0.0574011676       -2.0561688558        0.0012905717
 H          2.2283760663       -1.9237098986        0.0002732910
  16
  -23.1320397100000       0.143395377550580      !
 C         -2.5353618757       -1.0208627449       -0.0011644446
 C         -1.2367514493       -0.2726163945        0.0015181047
 C         -1.2022168301        1.1145363143        0.0007508962
 C          0.0097757819        1.7853001032       -0.0003367076
 C          1.2000757783        1.0861158491       -0.0006650839
 C          1.1779507935       -0.3059825314       -0.0001152414
 C         -0.0376714557       -0.9750041252        0.0010053884
 O          2.3706506756       -0.9651096181       -0.0001124916
 H         -3.3766140175       -0.3358727164        0.0540789026
 H         -2.6271183120       -1.6122629757       -0.9108004416
 H         -2.5819061247       -1.7022972231        0.8462939893
 H         -2.1255391216        1.6741309720        0.0002904542
 H          0.0274995290        2.8647139362       -0.0014298339
 H          2.1528390897        1.5915694589       -0.0012329779
 H         -0.0573742585       -2.0561983292        0.0023892397
 H          2.2282799982       -1.9236844327        0.0003646390
  16
  -23.1320377100000       0.143092217967699      !
 C         -2.5341815120       -1.0333371630        0.0005774337
 C         -1.2297786840       -0.2961834095       -0.0003289204
 C         -1.2129795057        1.0958649048       -0.0001912433
 C         -0.0135437434        1.7809363905       -0.0000867315
 C          1.1893301112        1.0953804581        0.0000073566
 C          1.1843747200       -0.2931139763        0.0000412836
 C         -0.0260013765       -0.9801915690       -0.0001498187
 O          2.3324177948       -1.0275452395       -0.0001010998
 H         -3.1253941950       -0.7528522074       -0.8693304172
 H         -2.3734436347       -2.1074769553       -0.0163504654
 H         -3.1086805979       -0.7788724005        0.8896384791
 H         -2.1459697272        1.6391458361       -0.0002678420
 H         -0.0086343729        2.8606931516       -0.0000976375
 H          2.1241572102        1.6369119750        0.0000013129
 H         -0.0001403607       -2.0594174916       -0.0002484035
 H          3.1064668045       -0.4449344221       -0.0001835127
  16
  -23.1320367200000       0.142942391209153      !
 C         -2.5341057943       -1.0334237149       -0.0007410357
 C         -1.2297978912       -0.2961354742        0.0012094869
 C         -1.2129541661        1.0958854338        0.0005324701
 C         -0.0135000524        1.7809412090       -0.0003480495
 C          1.1893403562        1.0953948046       -0.0004356283
 C          1.1843312499       -0.2931074703       -0.0001536130
 C         -0.0260508587       -0.9801574847        0.0005865512
 O          2.3323616724       -1.0275446897       -0.0000192857
 H         -2.3738920354       -2.1065633973        0.0503543171
 H         -3.1413314415       -0.7273319214        0.8490956224
 H         -3.0919021483       -0.8058882359       -0.9077078060
 H         -2.1459014221        1.6391931781        0.0008840936
 H         -0.0085650225        2.8606568087       -0.0004907953
 H          2.1241776217        1.6369167319       -0.0008763055
 H         -0.0002541002       -2.0593570219        0.0013143406
 H          3.1064101132       -0.4449338999       -0.0000149772
  16
  -23.1320211200000       0.140602090950157      !
 C         -2.5413236151       -1.0114949758       -0.0077575266
 C         -1.2339532806       -0.2791267561        0.0082040731
 C         -1.2019895213        1.1099913624        0.0040734312
 C          0.0071065277        1.7829045199       -0.0013975185
 C          1.1997120187        1.0855192040       -0.0030235363
 C          1.1802494000       -0.3055003628        0.0002379545
 C         -0.0350852241       -0.9781765483        0.0057556622
 O          2.3737407034       -0.9631875401       -0.0009453856
 H         -2.9197257633       -1.0690583039       -1.0280906912
 H         -2.4261472417       -2.0237059554        0.3704322579
 H         -3.2804453494       -0.4890945402        0.5944584090
 H         -2.1279770725        1.6650903330        0.0059133307
 H          0.0232927205        2.8623597368       -0.0038420203
 H          2.1512569756        1.5932515599       -0.0062233913
 H         -0.0489972153       -2.0594856438        0.0086631499
 H          2.2326828908       -1.9219462515        0.0010960115
  16
  -23.1320378200000       0.143108875076598      !
 C         -2.5341796570       -1.0333406273        0.0003671620
 C         -1.2297795758       -0.2961875824       -0.0000724410
 C         -1.2129703245        1.0958647407       -0.0001122802
 C         -0.0135425134        1.7809451149       -0.0000930579
 C          1.1893305516        1.0953888914       -0.0000670726
 C          1.1843717544       -0.2931117950       -0.0000615377
 C         -0.0260073883       -0.9801973055       -0.0000176991
 O          2.3324174066       -1.0275490081       -0.0000627383
 H         -3.1134224965       -0.7714825444        0.8841386339
 H         -3.1207202547       -0.7601583541       -0.8750508971
 H         -2.3734164568       -2.1075734088       -0.0070031558
 H         -2.1459444231        1.6391378938       -0.0000753431
 H         -0.0086276543        2.8607008529       -0.0001583550
 H          2.1241507963        1.6369225143       -0.0000212047
 H         -0.0001464895       -2.0594264410       -0.0000384952
 H          3.1064604546       -0.4449323350       -0.0001169728
