  14
  -26.3492164300000       0.500010581948349      !
 C         -2.5554524523       -0.0000012044        0.0000038541
 C         -1.8673808763       -1.2062209983        0.0000482359
 C         -0.4863864590       -1.2145816213        0.0000489294
 C          0.1972777781        0.0000002199        0.0000388996
 C         -0.4863886621        1.2145812308        0.0000074994
 C         -1.8673835011        1.2062200686       -0.0000373889
 N          1.6194043755        0.0000002463        0.0000350899
 O          2.2045790472       -1.0730659819       -0.0001433630
 O          2.2045756976        1.0730677588        0.0000810790
 H         -3.6339013224       -0.0000020922       -0.0001668815
 H         -2.4077514444       -2.1388261100        0.0000011987
 H          0.0766730225       -2.1347374598        0.0001433578
 H          0.0766696833        2.1347375543       -0.0002121299
 H         -2.4077546716        2.1388239412       -0.0005756328
  14
  -26.3492163900000       0.499989418051651      !
 C         -2.5554453429        0.0000014293        0.0001259601
 C         -1.8673800910       -1.2062196845        0.0003619466
 C         -0.4863880660       -1.2145833751        0.0001965602
 C          0.1972750736       -0.0000023088       -0.0001245309
 C         -0.4863870445        1.2145771342       -0.0004954370
 C         -1.8673750294        1.2062161703       -0.0002666709
 N          1.6194010659        0.0000017346        0.0000085221
 O          2.2045713423        1.0730691552       -0.0005036636
 O          2.2045751459       -1.0730623732        0.0006186287
 H         -3.6338933463        0.0000053626       -0.0001988616
 H         -2.4077546237       -2.1388246562        0.0006574544
 H          0.0766707881       -2.1347418663        0.0007586117
 H          0.0766700242        2.1347342092       -0.0004184406
 H         -2.4077434466        2.1388219157       -0.0003329694
