  15
    -0.244953 !GC
 C          0.0000000000        0.0000000000        0.0000000000
 C          1.3854631701        0.0000000000        0.0000000000
 C          2.0502568432        1.2209176811        0.0000000000
 C          1.3608572548        2.4346176842       -0.0000727375
 C         -0.0250880042        2.4204752533        0.0005253507
 C         -0.6986851248        1.1898275962        0.0006930986
 O         -0.8566773104        3.4750649588        0.0032899560
 N          3.4709592738        1.2463939428        0.0025596882
 O          4.0351339241        2.3320819218        0.0059028644
 O          4.0782259082        0.1864411807        0.0032460708
 H         -0.5354779458       -0.9346355095        0.0029143798
 H          1.9560934681       -0.9141186661        0.0041551894
 H          1.9496296288        3.3410749426        0.0018893855
 H         -1.7743232732        1.2332555623        0.0062003030
 H         -1.7882426006        3.2056447597        0.0006082402
  15
    -0.129745 !GC
 C          0.0000000000        0.0000000000        0.0000000000
 C          1.3854258250        0.0000000000        0.0000000000
 C          2.0501504770        1.2209967761        0.0000000000
 C          1.3607026680        2.4347075508       -0.0000457062
 C         -0.0252707105        2.4205518480        0.0001247449
 C         -0.6987573619        1.1898332204       -0.0000422011
 O         -0.8564195452        3.4753074736        0.0002320264
 N          3.4707265266        1.2463110304        0.0007969484
 O          4.0766152111        0.1837932242       -0.0014519775
 O          4.0364053761        2.3296120317        0.0037612070
 H         -0.5355719823       -0.9346835308        0.0012177719
 H          1.9561522823       -0.9140360220        0.0014290033
 H          1.9495639465        3.3412454320        0.0002731599
 H         -1.7744174014        1.2329906828       -0.0027254732
 H         -1.7884271920        3.2071747015       -0.0015325851
  15
    -0.018151 !GC
 C          0.0000000000        0.0000000000        0.0000000000
 C          1.3834119683        0.0000000000        0.0000000000
 C          2.0483211232        1.2227410532        0.0000000000
 C          1.3585167646        2.4325593564        0.0000973755
 C         -0.0301642888        2.4191193917        0.0007728614
 C         -0.7022081776        1.1910002119        0.0005483959
 O         -0.7695455220        3.5410709418        0.0014394362
 N          3.4698234496        1.2461787453        0.0014919776
 O          4.0719489032        0.1815597483       -0.0042896323
 O          4.0386349169        2.3263843449        0.0070698723
 H         -0.5349807524       -0.9352433784        0.0031198575
 H          1.9544419260       -0.9137743951        0.0029407750
 H          1.9199501424        3.3544925364       -0.0008437586
 H         -1.7801789625        1.2026971072       -0.0009115619
 H         -0.2167882028        4.3385304145        0.0047181655
