  15
  -30.4297171200000       0.328110959903112      !
 C         -1.0895802280       -1.8648514744       -0.0001769241
 C          0.2423035026       -1.4903753134       -0.0000975945
 C          0.5512625006       -0.1332583881        0.0000109356
 C         -0.4404932950        0.8444984637        0.0000805249
 C         -1.7737180925        0.4555391913        0.0000299297
 C         -2.0880136436       -0.9086491120       -0.0001135886
 O         -2.7891853663        1.3355951178        0.0001833199
 N          1.9132519788        0.2745337624        0.0000152066
 O          2.7821821810       -0.5844736209        0.0004424331
 O          2.1658784711        1.4707540215       -0.0004444450
 H         -1.3514100665       -2.9099615613       -0.0002772510
 H          1.0393261402       -2.2158063875       -0.0001207727
 H         -0.1494980785        1.8839723681        0.0001886314
 H         -3.1288016137       -1.1892055660       -0.0001697298
 H         -2.4723092497        2.2527091019        0.0004680703
  15
  -30.4297170900000       0.328100543909061      !
 C         -1.0895789239       -1.8648510795       -0.0005710937
 C          0.2423026950       -1.4903764387       -0.0005510608
 C          0.5512640873       -0.1332627026       -0.0000427184
 C         -0.4404960268        0.8445011762        0.0003013726
 C         -1.7737161966        0.4555413584        0.0001285763
 C         -2.0880098927       -0.9086506454       -0.0002758687
 O         -2.7891846297        1.3355957674        0.0006547804
 N          1.9132499008        0.2745324014        0.0000570990
 O          2.1658758028        1.4707546862        0.0007805718
 O          2.7821817069       -0.5844724526       -0.0007215606
 H         -1.3514065811       -2.9099601060       -0.0007693150
 H          1.0393215271       -2.2158079933       -0.0009979892
 H         -0.1494984876        1.8839738791        0.0006930272
 H         -3.1287954379       -1.1892064588       -0.0001810391
 H         -2.4723063846        2.2527083823        0.0011762991
  15
  -30.4291062100000       0.171896067070130      !
 C         -1.0737097014       -1.8723668475        0.0000319215
 C          0.2533235054       -1.4882453955        0.0000832216
 C          0.5513981969       -0.1269598603        0.0001582868
 C         -0.4471517923        0.8393104951        0.0001754711
 C         -1.7801805003        0.4400480222       -0.0000389529
 C         -2.0831026618       -0.9236944157       -0.0001411785
 O         -2.7251875144        1.3964495287       -0.0000654947
 N          1.9115595967        0.2895698678        0.0001294374
 O          2.7838816912       -0.5662675052       -0.0001857065
 O          2.1590858768        1.4857945151       -0.0000737412
 H         -1.3269019881       -2.9198673100       -0.0003235820
 H          1.0561531474       -2.2070492594        0.0000968514
 H         -0.1948650214        1.8874966462        0.0001540198
 H         -3.1140281141       -1.2431143288        0.0002650738
 H         -3.6187666324        1.0164121096       -0.0000358331
  15
  -30.4291061900000       0.171892429117697      !
 C         -1.0728684159       -1.8728878335       -0.0008139129
 C          0.2539926506       -1.4881809849       -0.0007913804
 C          0.5514876329       -0.1267607711       -0.0002239898
 C         -0.4475315821        0.8390167819        0.0003447702
 C         -1.7803847663        0.4391618553        0.0002982084
 C         -2.0827053369       -0.9246911662       -0.0002442226
 O         -2.7258187804        1.3951044534        0.0008423551
 N          1.9114362281        0.2905205868       -0.0000466099
 O          2.1582740124        1.4868451162        0.0015121683
 O          2.7842728133       -0.5647516633       -0.0011960384
 H         -1.3255782925       -2.9204654876       -0.0011727204
 H          1.0571462094       -2.2066411588       -0.0010785047
 H         -0.1957460480        1.8872446169        0.0008960857
 H         -3.1134835764       -1.2445606738       -0.0001240969
 H         -3.6191727086        1.0147070352        0.0007842170
