  15
        -30.42971712
 C         -1.0895802280       -1.8648514744       -0.0001769241
 C          0.2423035026       -1.4903753134       -0.0000975945
 C          0.5512625006       -0.1332583881        0.0000109356
 C         -0.4404932950        0.8444984637        0.0000805249
 C         -1.7737180925        0.4555391913        0.0000299297
 C         -2.0880136436       -0.9086491120       -0.0001135886
 O         -2.7891853663        1.3355951178        0.0001833199
 N          1.9132519788        0.2745337624        0.0000152066
 O          2.7821821810       -0.5844736209        0.0004424331
 O          2.1658784711        1.4707540215       -0.0004444450
 H         -1.3514100665       -2.9099615613       -0.0002772510
 H          1.0393261402       -2.2158063875       -0.0001207727
 H         -0.1494980785        1.8839723681        0.0001886314
 H         -3.1288016137       -1.1892055660       -0.0001697298
 H         -2.4723092497        2.2527091019        0.0004680703
