  8
  -14.4720439300000       0.333740038214589      !
 C         -1.4513849558        0.0534962433       -0.0006112184
 C          0.0381360737       -0.0873429648       -0.0029028086
 O          0.6412919264       -1.1403642361        0.0006036924
 O          0.6585467475        1.0838448982       -0.0000336063
 H         -1.7589399801        0.4848754351        0.9490281822
 H         -1.7486713210        0.7363147730       -0.7913857171
 H         -1.9155961697       -0.9176896692       -0.1336335149
 H          1.6308355574        0.9969725358        0.0088154116
  8
  -14.4720426200000       0.333277716529165      !
 C         -1.4513835179        0.0534784597       -0.0002577301
 C          0.0381316501       -0.0872772543        0.0023938461
 O          0.6412578861       -1.1403360297        0.0005704505
 O          0.6585795038        1.0838829301        0.0002184036
 H         -1.9153554712       -0.9142992554        0.1565283809
 H         -1.7480152979        0.7560409206        0.7731605123
 H         -1.7598312910        0.4601017630       -0.9605737818
 H          1.6308861060        0.9970071210       -0.0070910763
  8
  -14.4720401300000       0.332400717268083      !
 C         -1.4513967755        0.0534652257       -0.0008289505
 C          0.0381445378       -0.0871708753       -0.0029090237
 O          0.6412188480       -1.1402962722        0.0003694644
 O          0.6586320649        1.0839519637       -0.0002558150
 H         -1.7465089014        0.7837992997       -0.7484756944
 H         -1.9147179400       -0.9084066334       -0.1922340739
 H         -1.7622185243        0.4235448901        0.9735703892
 H          1.6309191644        0.9970761847        0.0098775051
  8
  -14.4650029200000       1.939028342801310E-004 !
 C         -1.4455893365        0.0144150951       -0.0005317312
 C          0.0514394913       -0.0877684718        0.0000023685
 O          0.6598248061       -1.1344064111        0.0004954347
 O          0.7200028488        1.0653359371        0.0000134693
 H         -1.7783473965        0.5529471549       -0.8847853040
 H         -1.8748334624       -0.9825551219       -0.0025971296
 H         -1.7788519232        0.5492406658        0.8858016089
 H          0.1423808120        1.8508348264       -0.0001892455
  8
  -14.4650026700000       1.938515443201599E-004 !
 C         -1.4455855193        0.0144273512       -0.0005185256
 C          0.0514409221       -0.0877730461       -0.0001765183
 O          0.6598365660       -1.1343966476        0.0005236691
 O          0.7199922527        1.0653163359        0.0000306257
 H         -1.8748789692       -0.9825041704       -0.0067916081
 H         -1.7786349576        0.5451188444        0.8884129378
 H         -1.7786121345        0.5570837804       -0.8821701400
 H          0.1423930809        1.8508336932        0.0000325116
  8
  -14.4650022900000       1.937736095626843E-004 !
 C         -1.4454888459        0.0144634639       -0.0007144821
 C          0.0514431208       -0.0878062911        0.0004774887
 O          0.6598153217       -1.1343895021        0.0002611189
 O          0.7199056234        1.0652929331       -0.0001828019
 H         -1.7786948118        0.5425436966        0.8896377255
 H         -1.7778175070        0.5598052777       -0.8808644518
 H         -1.8748962162       -0.9824026142       -0.0101521329
 H          0.1422096996        1.8508096734        0.0029597453
