  12
    -1.942049 !GC
 C          0.0000000000        0.0000000000        0.0000000000
 O          1.4347697312        0.0000000000        0.0000000000
 C          2.1081050102        1.1289607826        0.0000000000
 O          1.6373057585        2.2420740299        0.0184630996
 C          3.6078910760        0.8479767350       -0.0470780191
 C          3.9808052624        0.6781598454       -1.4240283605
 N          4.2607014482        0.5445086474       -2.5251821867
 H         -0.3532642642        0.1279474105        1.0234035050
 H         -0.2958924336       -0.9762987261       -0.3748745776
 H         -0.3720528525        0.8060215878       -0.6320728921
 H          3.8298952880       -0.0714579870        0.4968917533
 H          4.1520294245        1.6968378267        0.3700424147
  12
    -1.038779 !GC
 C          0.0000000000        0.0000000000        0.0000000000
 O          1.4322022594        0.0000000000        0.0000000000
 C          2.0471246833        1.1656378854        0.0000000000
 O          1.4929563855        2.2387431844        0.0127471294
 C          3.5604629185        0.9825352961       -0.0429547398
 C          3.9549791271        0.8918355281       -1.4214193664
 N          4.2524090364        0.8183431227       -2.5236595531
 H         -0.3769185776        0.5497514364        0.8633461814
 H         -0.2813919519       -1.0466390716        0.0497425739
 H         -0.3733650682        0.4705197885       -0.9099584512
 H          3.8346995733        0.0571315441        0.4663742652
 H          4.0463935992        1.8455823412        0.4153315726
  12
    -0.766738 !GC
 C          0.0000000000        0.0000000000        0.0000000000
 O          1.4335625779        0.0000000000        0.0000000000
 C          2.0805466368        1.1457004193        0.0000000000
 O          1.5723614119        2.2403626680        0.0572313030
 C          3.5827889975        0.9130456587       -0.1338514154
 C          4.1643761272        1.0345751608        1.1739478818
 N          4.6117505044        1.1415537014        2.2212328927
 H         -0.3167686874       -0.6743681171        0.7924421226
 H         -0.3361486618       -0.3674402497       -0.9685827044
 H         -0.3735110957        1.0096794908        0.1720858660
 H          4.0211389201        1.6690467100       -0.7870543006
 H          3.7601357497       -0.0931412707       -0.5174703290
  12
    -0.646529 !GC
 C          0.0000000000        0.0000000000        0.0000000000
 O          1.4339799340        0.0000000000        0.0000000000
 C          2.0909277293        1.1351151428        0.0000000000
 O          1.6024371062        2.2416597956        0.0098247953
 C          3.6048895834        0.9444400817       -0.0457492659
 C          4.1037085378        0.9409102786        1.3013521822
 N          4.4828313645        0.9440128016        2.3810806380
 H         -0.3317028076       -0.9815426588        0.3335683140
 H         -0.3327811208        0.1965764098       -1.0174073749
 H         -0.3567549176        0.7687866824        0.6846331393
 H          4.0592227505        1.7723053359       -0.5933940051
 H          3.8328424708       -0.0118606832       -0.5199134578
  12
    -0.492838 !GC
 C          0.0000000000        0.0000000000        0.0000000000
 O          1.4334298516        0.0000000000        0.0000000000
 C          2.0766216358        1.1486348239        0.0000000000
 O          1.5617708286        2.2416040411       -0.0162850706
 C          3.5844148611        0.9186415024        0.0393967468
 C          3.9871902623        0.8773150596        1.4179906075
 N          4.2916000563        0.8444047468        2.5202293875
 H         -0.3251952449       -0.3179319292        0.9885292725
 H         -0.3432174909       -0.7109389321       -0.7503845577
 H         -0.3584140218        1.0026338642       -0.2289330112
 H          4.0939306698        1.7459857217       -0.4574496038
 H          3.8252360938       -0.0358971378       -0.4317163273
  12
    -0.389759 !GC
 C          0.0000000000        0.0000000000        0.0000000000
 O          1.4340157650        0.0000000000        0.0000000000
 C          2.0982317603        1.1308271595        0.0000000000
 O          1.6197035710        2.2416736992        0.0262658156
 C          3.6106736684        0.9288718913       -0.0444552647
 C          4.1184323190        0.9981646569        1.2973626910
 N          4.5028559420        1.0577748893        2.3732579123
 H         -0.3270286632        0.0702030322        1.0354555810
 H         -0.3392535745       -0.9329990412       -0.4483721452
 H         -0.3538541160        0.8458962277       -0.5882878526
 H          4.0668164167        1.7196802220       -0.6427748870
 H          3.8296051700       -0.0553664017       -0.4629988509
  12
    -0.364762 !GC
 C          0.0000000000        0.0000000000        0.0000000000
 O          1.4346589577        0.0000000000        0.0000000000
 C          2.0974968171        1.1353697414        0.0000000000
 O          1.6173549651        2.2422591635        0.0436175979
 C          3.5942780199        0.8352444534       -0.0912166328
 C          4.1636155839        2.1350080042       -0.3207380281
 N          4.6323442645        3.1630116776       -0.5009624312
 H         -0.3606937410       -0.9773110409        0.3233514336
 H         -0.3276724310        0.1901776329       -1.0200427078
 H         -0.3354549384        0.7771053237        0.6835091042
 H          3.8207968298        0.2070273788       -0.9507106871
 H          3.9712176184        0.4532609417        0.8561000259
  12
    -0.342083 !GC
 C          0.0000000000        0.0000000000        0.0000000000
 O          1.4331896321        0.0000000000        0.0000000000
 C          2.0741191783        1.1500204296        0.0000000000
 O          1.5561206428        2.2412559875       -0.0224929511
 C          3.5823227877        0.9233245543        0.0426919717
 C          3.9702776639        0.7891571260        1.4194372414
 N          4.2633065556        0.6813111726        2.5198891648
 H         -0.2990067456       -0.0927028311        1.0401988687
 H         -0.3285758744       -0.8601228975       -0.5805225101
 H         -0.3996986106        0.9160517510       -0.4393460623
 H          4.0940289605        1.7835352350       -0.3921315594
 H          3.8324253803        0.0031128970       -0.4879681923
  12
    -0.325170 !GC
 C          0.0000000000        0.0000000000        0.0000000000
 O          1.4326539326        0.0000000000        0.0000000000
 C          2.0621767395        1.1524397678        0.0000000000
 O          1.5341904711        2.2402033460        0.0099493190
 C          3.5805877758        1.0085263303       -0.0437042092
 C          4.0761273243        1.0025530529        1.3045903610
 N          4.4527558118        1.0042585207        2.3852017382
 H         -0.3035609798       -0.9767376660       -0.3659991067
 H         -0.3649916581        0.7975938957       -0.6467883383
 H         -0.3577841552        0.1547041787        1.0177399975
 H          4.0102165265        1.8570636465       -0.5796573328
 H          3.8390284321        0.0660337527       -0.5300324198
  12
    -0.283827 !GC
 C          0.0000000000        0.0000000000        0.0000000000
 O          1.4346161876        0.0000000000        0.0000000000
 C          2.0948119187        1.1365025140        0.0000000000
 O          1.6104295252        2.2416378754        0.0319348151
 C          3.5928541117        0.8411369664       -0.0921553527
 C          4.1643658355        2.1512100526       -0.2438608744
 N          4.6328356801        3.1885092563       -0.3604209271
 H         -0.2764294233       -0.8445519046       -0.6240946658
 H         -0.3556947266        0.9234007663       -0.4580192566
 H         -0.3917262552       -0.1004904621        1.0128911669
 H          3.8269089770        0.2619231684       -0.9834741293
 H          3.9602109639        0.4067641466        0.8360476593
  12
    -0.281341 !GC
 C          0.0000000000        0.0000000000        0.0000000000
 O          1.4337366865        0.0000000000        0.0000000000
 C          2.0974487868        1.1311972927        0.0000000000
 O          1.6180632549        2.2416998915        0.0241746244
 C          3.6100952966        0.9286496907       -0.0337706622
 C          4.1188745596        1.0655788534        1.3023585244
 N          4.5043066884        1.1788557459        2.3736983200
 H         -0.3249286679       -0.9704232904       -0.3696122688
 H         -0.2589526839        0.8080377170       -0.6752673947
 H         -0.4354459013        0.1751970123        0.9885738022
 H          4.0664797724        1.6857564312       -0.6738343589
 H          3.8272233248       -0.0766745760       -0.4003742062
  12
    -0.273101 !GC
 C          0.0000000000        0.0000000000        0.0000000000
 O          1.4335282608        0.0000000000        0.0000000000
 C          2.0762268235        1.1486577312        0.0000000000
 O          1.5610312434        2.2414962675        0.0126025286
 C          3.5839094950        0.9189474166       -0.0450150559
 C          3.9705978205        0.7985288314       -1.4234298948
 N          4.2617887823        0.7028753090       -2.5256284944
 H         -0.4046562347        0.9643616426        0.3170786260
 H         -0.2486892021       -0.7744277950        0.7157736812
 H         -0.3723357302       -0.2187259243       -1.0008153995
 H          3.8323111855       -0.0077068324        0.4750373577
 H          4.0970845402        1.7729009260        0.4000988794
  12
    -0.272534 !GC
 C          0.0000000000        0.0000000000        0.0000000000
 O          1.4349423259        0.0000000000        0.0000000000
 C          2.1093526797        1.1232716813        0.0000000000
 O          1.6516044795        2.2417700083        0.0008368370
 C          3.6170620874        0.8625889626        0.0061202988
 C          4.1809766472        2.1770734943       -0.1352167942
 N          4.6470518362        3.2163057377       -0.2477613581
 H         -0.3240789439       -0.9713702651        0.3670553313
 H         -0.2993819588        0.1546500000       -1.0335558661
 H         -0.3946661673        0.7997979054        0.6299884283
 H          3.9100802086        0.2622503451       -0.8536383272
 H          3.9311437626        0.4535529813        0.9655661589
  12
    -0.252216 !GC
 C          0.0000000000        0.0000000000        0.0000000000
 O          1.4350695009        0.0000000000        0.0000000000
 C          2.1122938719        1.1214326166        0.0000000000
 O          1.6585698985        2.2416758957        0.0013700101
 C          3.6195628347        0.8578635541       -0.0021741655
 C          4.1870370014        2.1770870542       -0.0595968170
 N          4.6546625674        3.2205399552       -0.1050275971
 H         -0.2867683264       -1.0380809659        0.1424455527
 H         -0.3587880175        0.3532640762       -0.9674205956
 H         -0.3721732771        0.6421744021        0.7980311563
 H          3.9150529148        0.3138837369       -0.8980295760
 H          3.9299423237        0.3874762206        0.9297041846
  12
    -0.251351 !GC
 C          0.0000000000        0.0000000000        0.0000000000
 O          1.4336566975        0.0000000000        0.0000000000
 C          2.0852746632        1.1431813156        0.0000000000
 O          1.5824293189        2.2417833001        0.0198266527
 C          3.5910584082        0.8999265347       -0.0433337984
 C          3.9736958277        0.7501155312       -1.4199094508
 N          4.2626339808        0.6291151527       -2.5202187529
 H         -0.3510451977        0.9879980871        0.2972124014
 H         -0.2754863773       -0.7277408627        0.7572346173
 H         -0.3983865163       -0.2699061767       -0.9789655693
 H          3.8326635693       -0.0183704237        0.4943631583
 H          4.1129863577        1.7580366715        0.3834756167
  12
    -0.243559 !GC
 C          0.0000000000        0.0000000000        0.0000000000
 O          1.4335545033        0.0000000000        0.0000000000
 C          2.0776751855        1.1479459348        0.0000000000
 O          1.5641526379        2.2413621643       -0.0197044830
 C          3.5851113955        0.9158931220        0.0418348644
 C          3.9746959965        0.8030784224        1.4201654416
 N          4.2688815927        0.7139991987        2.5220499158
 H         -0.3640340629       -0.7627587277       -0.6875995346
 H         -0.2963500687        0.9882655943       -0.3431712937
 H         -0.3657059232       -0.1725818548        1.0118577820
 H          4.0989782447        1.7672110096       -0.4076703231
 H          3.8304598308       -0.0138815408       -0.4742771672
  12
    -0.240493 !GC
 C          0.0000000000        0.0000000000        0.0000000000
 O          1.4349408119        0.0000000000        0.0000000000
 C          2.1034259680        1.1271086845        0.0000000000
 O          1.6372193330        2.2420700564       -0.0057964318
 C          3.6128184408        0.8770762854       -0.0038730684
 C          4.1689386367        2.2020958671       -0.0349989716
 N          4.6283150578        3.2498380788       -0.0617791432
 H         -0.3411170832       -1.0282091473        0.1145166219
 H         -0.3322976863        0.4124423953       -0.9507298053
 H         -0.3459280226        0.6031173338        0.8381594370
 H          3.9151537726        0.3534148734       -0.9095458288
 H          3.9246236311        0.3909441576        0.9192918557
  12
    -0.224285 !GC
 C          0.0000000000        0.0000000000        0.0000000000
 O          1.4336148105        0.0000000000        0.0000000000
 C          2.0748845826        1.1447119701        0.0000000000
 O          1.5688549028        2.2416895481       -0.0057972430
 C          3.5905058295        0.9413823319       -0.0019312008
 C          4.1059636499        2.2830392745       -0.0143210697
 N          4.5333132881        3.3445377072       -0.0251179474
 H         -0.3130098496       -0.8736591974       -0.5664186687
 H         -0.3645113216        0.9189253881       -0.4586195785
 H         -0.3469569132       -0.0708208707        1.0301654967
 H          3.9107682170        0.4385665035       -0.9133185418
 H          3.9145824946        0.4527629450        0.9158371441
  12
    -0.192061 !GC
 C          0.0000000000        0.0000000000        0.0000000000
 O          1.4335686338        0.0000000000        0.0000000000
 C          2.0805718616        1.1459902396        0.0000000000
 O          1.5712458515        2.2414542073        0.0152305591
 C          3.5873638012        0.9092893297       -0.0425867280
 C          3.9832917220        0.8389203711       -1.4217186520
 N          4.2817239109        0.7821784947       -2.5246370899
 H         -0.3640509114       -0.5684124212       -0.8552076825
 H         -0.2813645050        1.0459192575       -0.0853466806
 H         -0.3803521020       -0.4175333160        0.9330348124
 H          3.8270353826       -0.0364684813        0.4459745413
 H          4.1023876799        1.7443611927        0.4352226368
  12
    -0.149836 !GC
 C          0.0000000000        0.0000000000        0.0000000000
 O          1.4331649036        0.0000000000        0.0000000000
 C          2.0787290748        1.1470432918        0.0000000000
 O          1.5673482138        2.2416296934        0.0165486221
 C          3.5859600095        0.9118831915       -0.0341571867
 C          3.9697491825        0.7025804999       -1.4025588839
 N          4.2584766059        0.5361015597       -2.4970699512
 H         -0.3231134065       -0.5671385312       -0.8704792697
 H         -0.2479593076        1.0513827660       -0.0831535744
 H         -0.4542212140       -0.4420058981        0.8929661564
 H          3.8361107468        0.0232577042        0.5474056206
 H          4.0999789792        1.7944260904        0.3508388254
  12
    -0.137180 !GC
 C          0.0000000000        0.0000000000        0.0000000000
 O          1.4345774547        0.0000000000        0.0000000000
 C          2.1058741696        1.1254299454        0.0000000000
 O          1.6434941621        2.2420070794       -0.0018920081
 C          3.6144711396        0.8700949970        0.0069858649
 C          4.1760834450        2.1877435126       -0.1108198471
 N          4.6400573053        3.2295355770       -0.2065013503
 H         -0.2585395830        0.8897114042        0.5637348649
 H         -0.3315762286       -0.9124206624        0.4917827217
 H         -0.4284247429        0.0513678804       -1.0053356615
 H          3.9123530093        0.2841045053       -0.8609734575
 H          3.9262708748        0.4465348921        0.9608017081
  12
    -0.133947 !GC
 C          0.0000000000        0.0000000000        0.0000000000
 O          1.4339796817        0.0000000000        0.0000000000
 C          2.0784247897        1.1426367883        0.0000000000
 O          1.5769359508        2.2417220505       -0.0030408450
 C          3.5933380931        0.9339377248       -0.0027962868
 C          4.1113919076        2.2743039939       -0.0387598995
 N          4.5409458543        3.3346710367       -0.0664538599
 H         -0.3778584223        0.9606252797       -0.3515910115
 H         -0.3325575207       -0.1855407016        1.0198432740
 H         -0.3125509800       -0.8065878177       -0.6586505167
 H          3.9094223359        0.4159526450       -0.9071081595
 H          3.9188696674        0.4593797092        0.9218681854
  12
    -0.115683 !GC
 C          0.0000000000        0.0000000000        0.0000000000
 O          1.4345389742        0.0000000000        0.0000000000
 C          2.0934297938        1.1376345478        0.0000000000
 O          1.6078713885        2.2423265338        0.0332333088
 C          3.5915816609        0.8438549209       -0.0925344793
 C          4.1596344668        2.1532915674       -0.2632364277
 N          4.6262822783        3.1898761370       -0.3949937414
 H         -0.2852028491        0.9898390149       -0.3449637148
 H         -0.3997898872       -0.1695666333        1.0019435079
 H         -0.3391169197       -0.7715845657       -0.6882367832
 H          3.8248208361        0.2537175626       -0.9769267474
 H          3.9627440913        0.4221748499        0.8399474805
  12
    -0.111186 !GC
 C          0.0000000000        0.0000000000        0.0000000000
 O          1.4352214044        0.0000000000        0.0000000000
 C          2.1101313368        1.1228968065        0.0000000000
 O          1.6532034607        2.2417485449        0.0029170515
 C          3.6179138033        0.8626517357       -0.0047279739
 C          4.1800355371        2.1834744785       -0.0791633895
 N          4.6448424845        3.2275424160       -0.1383197415
 H         -0.3261788552        0.7393267242        0.7283210335
 H         -0.3791395920       -0.9847046720        0.2811944413
 H         -0.3122767874        0.2423470814       -1.0125950620
 H          3.9117609732        0.3095639345       -0.8954858201
 H          3.9330399485        0.4040930504        0.9315036183
  12
    -0.110613 !GC
 C          0.0000000000        0.0000000000        0.0000000000
 O          1.4333965438        0.0000000000        0.0000000000
 C          2.0798666349        1.1462552972        0.0000000000
 O          1.5692837450        2.2411730564        0.0207733086
 C          3.5870727188        0.9122317033       -0.0470510125
 C          3.9607376841        0.7192186636       -1.4206000763
 N          4.2416518941        0.5660125727       -2.5187060097
 H         -0.2772543043       -0.4660297237       -0.9411831236
 H         -0.3305189169        1.0371004430        0.0133685088
 H         -0.4180510247       -0.5488734573        0.8464892964
 H          3.8392439057        0.0140726090        0.5190137979
 H          4.1052958062        1.7878393486        0.3476920875
  12
    -0.105654 !GC
 C          0.0000000000        0.0000000000        0.0000000000
 O          1.4337752932        0.0000000000        0.0000000000
 C          2.0862957931        1.1421959295        0.0000000000
 O          1.5858533814        2.2404616683        0.0583454345
 C          3.5873902130        0.9008305629       -0.1322139556
 C          4.1694134004        1.0258921263        1.1750360713
 N          4.6193417422        1.1367090370        2.2208491489
 H         -0.3426428836        0.9376030818        0.4363125456
 H         -0.2833246315       -0.8272426362        0.6449902433
 H         -0.3988149499       -0.1291840110       -1.0071996203
 H          4.0297799201        1.6516956520       -0.7886573944
 H          3.7598270801       -0.1079456616       -0.5112353274
  12
    -0.092372 !GC
 C          0.0000000000        0.0000000000        0.0000000000
 O          1.4347361711        0.0000000000        0.0000000000
 C          2.0988750450        1.1342331805        0.0000000000
 O          1.6198991846        2.2415670820        0.0423214617
 C          3.5955395533        0.8325227399       -0.0908374201
 C          4.1684838750        2.1337037483       -0.3014500219
 N          4.6391791250        3.1630828700       -0.4664223070
 H         -0.3520432760        0.8201238021        0.6263425557
 H         -0.2828371750       -0.9474465110        0.4504201823
 H         -0.3881110694        0.0935470349       -1.0147455929
 H          3.8227892650        0.2149155800       -0.9577420451
 H          3.9686577098        0.4376658603        0.8527557188
  12
    -0.090445 !GC
 C          0.0000000000        0.0000000000        0.0000000000
 O          1.4335211955        0.0000000000        0.0000000000
 C          2.0809177189        1.1455637723        0.0000000000
 O          1.5715524332        2.2409869318        0.0173458130
 C          3.5878892670        0.9094091671       -0.0446311154
 C          3.9744044058        0.7865489379       -1.4226258847
 N          4.2658451882        0.6884698936       -2.5242679541
 H         -0.3165051817        1.0398479157       -0.0388163560
 H         -0.2835300074       -0.4440711768        0.9504535519
 H         -0.4252365664       -0.5700580713       -0.8294695598
 H          3.8321160778       -0.0169953838        0.4776067666
 H          4.1046504855        1.7625219454        0.3982960338
  12
    -0.084294 !GC
 C          0.0000000000        0.0000000000        0.0000000000
 O          1.4335958856        0.0000000000        0.0000000000
 C          2.0773035552        1.1480813944        0.0000000000
 O          1.5636511506        2.2414759880        0.0202362533
 C          3.5847165362        0.9168694175       -0.0475613038
 C          3.9609262078        0.7618119302       -1.4255002695
 N          4.2417567718        0.6385290018       -2.5276739756
 H         -0.3642965588        1.0222868139       -0.0971906915
 H         -0.3488347304       -0.4368374947        0.9353925844
 H         -0.3131850604       -0.6141909279       -0.8407406926
 H          3.8365577425        0.0043072402        0.4950436842
 H          4.1011145478        1.7825658646        0.3707096749
  12
    -0.083027 !GC
 C          0.0000000000        0.0000000000        0.0000000000
 O          1.4338086010        0.0000000000        0.0000000000
 C          2.0830654282        1.1445927014        0.0000000000
 O          1.5771079129        2.2416479517        0.0214044231
 C          3.5892538432        0.9046941392       -0.0458882110
 C          3.9651761395        0.7405168029       -1.4228277732
 N          4.2471858069        0.6080490654       -2.5236551789
 H         -0.3898975788       -0.3631941330       -0.9524168881
 H         -0.2961433588        1.0362120668        0.1431344596
 H         -0.3388831482       -0.6203265157        0.8271186971
 H          3.8354292517       -0.0069271566        0.5009398711
 H          4.1106748641        1.7691564801        0.3686796395
  12
    -0.073739 !GC
 C          0.0000000000        0.0000000000        0.0000000000
 O          1.4336165768        0.0000000000        0.0000000000
 C          2.0933960250        1.1334651789        0.0000000000
 O          1.6087572653        2.2416705911        0.0137478121
 C          3.6070465209        0.9373137529       -0.0350613101
 C          4.1085634368        1.0193017538        1.3083831114
 N          4.4896571016        1.0907841954        2.3851676527
 H         -0.2490312523        0.9913810322        0.3597408423
 H         -0.3320597179       -0.7840708780        0.6777605662
 H         -0.4390160542       -0.1680857456       -0.9884356264
 H          4.0630782071        1.7235891872       -0.6392964493
 H          3.8301200018       -0.0501998533       -0.4436789362
  12
    -0.064234 !GC
 C          0.0000000000        0.0000000000        0.0000000000
 O          1.4334106744        0.0000000000        0.0000000000
 C          2.0827579565        1.1442937694        0.0000000000
 O          1.5776274392        2.2405383651        0.0556371951
 C          3.5847480616        0.9082140569       -0.1313143784
 C          4.1643114069        1.0125564642        1.1787057536
 N          4.6115018088        1.1052110317        2.2273897997
 H         -0.2772759796       -0.2180934296       -1.0272896745
 H         -0.3156295603        1.0043954327        0.2733186092
 H         -0.4324931211       -0.7387975721        0.6796171279
 H          4.0274396599        1.6700881373       -0.7747566691
 H          3.7599428887       -0.0938829458       -0.5263110798
  12
    -0.059616 !GC
 C          0.0000000000        0.0000000000        0.0000000000
 O          1.4327740423        0.0000000000        0.0000000000
 C          2.0662947401        1.1502768496        0.0000000000
 O          1.5434284950        2.2405601943        0.0204696571
 C          3.5839293819        0.9999369352       -0.0424204439
 C          4.0845199465        1.0495788143        1.3030166946
 N          4.4636301745        1.0936639739        2.3815603122
 H         -0.3787100051        0.9520834277        0.3740424747
 H         -0.2923440458       -0.8231993467        0.6450995120
 H         -0.3541346753       -0.1619509250       -1.0176896642
 H          4.0150897168        1.8223724688       -0.6163782860
 H          3.8371226538        0.0360922139       -0.4882923938
  12
    -0.057064 !GC
 C          0.0000000000        0.0000000000        0.0000000000
 O          1.4336100162        0.0000000000        0.0000000000
 C          2.0802006720        1.1461267419        0.0000000000
 O          1.5719799824        2.2408726893        0.0551054720
 C          3.5823733108        0.9128610374       -0.1318322317
 C          4.1542095157        0.9821207162        1.1841905119
 N          4.5937337360        1.0482541629        2.2384091909
 H         -0.3643133948        1.0144030401        0.1593163268
 H         -0.3339971821       -0.6594520315        0.7994842716
 H         -0.3279946985       -0.3840119179       -0.9639938247
 H          4.0286223821        1.6909329247       -0.7529731536
 H          3.7592730338       -0.0790433704       -0.5510314494
  12
    -0.054507 !GC
 C          0.0000000000        0.0000000000        0.0000000000
 O          1.4338227315        0.0000000000        0.0000000000
 C          2.0859520680        1.1426241388        0.0000000000
 O          1.5854725723        2.2409748349        0.0562222366
 C          3.5869713472        0.9006495418       -0.1301934523
 C          4.1589647373        0.9735345677        1.1855431273
 N          4.6009037148        1.0435769549        2.2385212696
 H         -0.3899130219       -0.1156887018       -1.0126711908
 H         -0.2811593764        0.9704734127        0.3989902038
 H         -0.3536116134       -0.8038291773        0.6440190611
 H          4.0373716575        1.6736867770       -0.7546659524
 H          3.7590461514       -0.0940038790       -0.5448551835
  12
    -0.049318 !GC
 C          0.0000000000        0.0000000000        0.0000000000
 O          1.4338956553        0.0000000000        0.0000000000
 C          2.0941802659        1.1330967983        0.0000000000
 O          1.6103778260        2.2416613572        0.0158432769
 C          3.6076153254        0.9375420300       -0.0457430389
 C          4.1083439563        0.9515478008        1.3005138003
 N          4.4886771398        0.9691009001        2.3796673810
 H         -0.2511597482       -0.0879400089       -1.0505153168
 H         -0.4112119488        0.9201456528        0.4234562089
 H         -0.3575030596       -0.8490929751        0.5817853748
 H          4.0633280713        1.7555294434       -0.6067849348
 H          3.8323684902       -0.0267220445       -0.5053181214
  12
    -0.040174 !GC
 C          0.0000000000        0.0000000000        0.0000000000
 O          1.4351537796        0.0000000000        0.0000000000
 C          2.1090768782        1.1235008223        0.0000000000
 O          1.6506920702        2.2418049031       -0.0046072836
 C          3.6170921630        0.8647958468       -0.0021877684
 C          4.1809625601        2.1863429295       -0.0398818062
 N          4.6453051580        3.2318301239       -0.0698392726
 H         -0.3668757435        0.3815720573        0.9540924869
 H         -0.2794670291       -1.0428751733       -0.1148323828
 H         -0.3714272819        0.6205601952       -0.8151622165
 H          3.9164427621        0.3353950097       -0.9055468886
 H          3.9261408268        0.3809984625        0.9231248106
  12
    -0.036761 !GC
 C          0.0000000000        0.0000000000        0.0000000000
 O          1.4330806249        0.0000000000        0.0000000000
 C          2.0820173051        1.1450586311        0.0000000000
 O          1.5753106846        2.2417407259        0.0225951322
 C          3.5885782106        0.9050383837       -0.0341487806
 C          3.9682241593        0.6756266936       -1.4004143089
 N          4.2532019942        0.4929349766       -2.4933099746
 H         -0.2424617050        0.9976572972       -0.3454793184
 H         -0.3276439249       -0.1668952042        1.0242692105
 H         -0.4549549868       -0.7605124888       -0.6433698126
 H          3.8378173997        0.0247353522        0.5601942873
 H          4.1064114793        1.7919176026        0.3357645880
  12
    -0.016975 !GC
 C          0.0000000000        0.0000000000        0.0000000000
 O          1.4341000437        0.0000000000        0.0000000000
 C          2.0949861625        1.1328570812        0.0000000000
 O          1.6117046016        2.2417380613        0.0202618557
 C          3.6079755034        0.9357787468       -0.0444617159
 C          4.1135959430        0.9876216177        1.2990182274
 N          4.4966652075        1.0328732548        2.3761064504
 H         -0.4064346223        0.9655966359       -0.3111980058
 H         -0.2596819906       -0.2169549089        1.0303281370
 H         -0.3531055554       -0.7743298607       -0.6799658521
 H          4.0629138860        1.7370378659       -0.6297770326
 H          3.8301223204       -0.0411517388       -0.4779005796
  12
    -0.016624 !GC
 C          0.0000000000        0.0000000000        0.0000000000
 O          1.4347836094        0.0000000000        0.0000000000
 C          2.0985363053        1.1346653153        0.0000000000
 O          1.6195541600        2.2420661042        0.0402175545
 C          3.5950546377        0.8323831636       -0.0887768708
 C          4.1725755919        2.1393834660       -0.2445723763
 N          4.6473981771        3.1732543139       -0.3653361603
 H         -0.3992187540        0.1044559636       -1.0112397676
 H         -0.2806718512        0.8610134179        0.5998800781
 H         -0.3427803947       -0.9275717626        0.4549221783
 H          3.8290240863        0.2469347102       -0.9759639908
 H          3.9592360414        0.4021728597        0.8427041025
  12
    -0.011198 !GC
 C          0.0000000000        0.0000000000        0.0000000000
 O          1.4338277782        0.0000000000        0.0000000000
 C          2.0806300750        1.1412353906        0.0000000000
 O          1.5822934784        2.2418350681       -0.0045986962
 C          3.5951404553        0.9292003241       -0.0002501081
 C          4.1184525981        2.2677145026       -0.0192182875
 N          4.5507174363        3.3272049768       -0.0332756469
 H         -0.3388954831       -0.3114356945        0.9869318651
 H         -0.3120307397       -0.7194376437       -0.7530752683
 H         -0.3724564248        0.9980120055       -0.2312985943
 H          3.9126587812        0.4205144726       -0.9093717235
 H          3.9163228699        0.4428257365        0.9197221178
  12
    -0.010622 !GC
 C          0.0000000000        0.0000000000        0.0000000000
 O          1.4334025998        0.0000000000        0.0000000000
 C          2.0798916818        1.1465451389        0.0000000000
 O          1.5695274171        2.2414973531       -0.0212637436
 C          3.5868038667        0.9112111260        0.0443954179
 C          3.9736612465        0.7816824863        1.4218725032
 N          4.2672286966        0.6793800528        2.5227316307
 H         -0.3249508131        1.0214714295       -0.1865569055
 H         -0.2756908707       -0.3044297335        1.0052638465
 H         -0.4248087401       -0.6813432719       -0.7408524677
 H          4.1034505535        1.7666694774       -0.3940189055
 H          3.8321226139       -0.0127241661       -0.4820048487
  12
    -0.010021 !GC
 C          0.0000000000        0.0000000000        0.0000000000
 O          1.4353056831        0.0000000000        0.0000000000
 C          2.1069098753        1.1249581995        0.0000000000
 O          1.6453189009        2.2418622943       -0.0030620763
 C          3.6154279178        0.8695786580       -0.0047411770
 C          4.1740110808        2.1929337746       -0.0594469341
 N          4.6355859518        3.2392058531       -0.1031458683
 H         -0.4055824876        0.5162297272       -0.8733962332
 H         -0.3001077211        0.5179293750        0.9075138811
 H         -0.3115243449       -1.0412857609        0.0079208568
 H          3.9131076174        0.3309841446       -0.9031580842
 H          3.9291930657        0.3975413022        0.9251081279
  12
    -0.007273 !GC
 C          0.0000000000        0.0000000000        0.0000000000
 O          1.4348565332        0.0000000000        0.0000000000
 C          2.1066540092        1.1250564519        0.0000000000
 O          1.6450878081        2.2419933952        0.0001906439
 C          3.6153281453        0.8701560196       -0.0038597343
 C          4.1750609956        2.1929733029       -0.0547176930
 N          4.6377383839        3.2387388503       -0.0970057672
 H         -0.2606658496        0.1397799501       -1.0434901973
 H         -0.4107363413        0.8066256467        0.6128973087
 H         -0.3466774106       -0.9583319789        0.3841281301
 H          3.9139024038        0.3318625603       -0.9020892493
 H          3.9283769616        0.3974141689        0.9259351661
  12
    -0.003569 !GC
 C          0.0000000000        0.0000000000        0.0000000000
 O          1.4346636259        0.0000000000        0.0000000000
 C          2.0944716951        1.1369333039        0.0000000000
 O          1.6101020781        2.2421241995        0.0298323322
 C          3.5923716770        0.8409943065       -0.0900954977
 C          4.1679700016        2.1546288688       -0.1867398722
 N          4.6400867337        3.1945728449       -0.2588536020
 H         -0.3243836009       -0.0903274808        1.0343234748
 H         -0.3535491064       -0.8558255210       -0.5753085162
 H         -0.3464372636        0.9297931153       -0.4480107815
 H          3.8332959813        0.2948232429       -1.0002383598
 H          3.9509631792        0.3718431028        0.8244369579
  12
    -0.000990 !GC
 C          0.0000000000        0.0000000000        0.0000000000
 O          1.4333237462        0.0000000000        0.0000000000
 C          2.0754143116        1.1488878640        0.0000000000
 O          1.5597382582        2.2413786477        0.0081534056
 C          3.5835744908        0.9206894109       -0.0463169781
 C          3.9739065440        0.8394332618       -1.4265883399
 N          4.2686336033        0.7727894734       -2.5302653094
 H         -0.2493213416        0.5475349548       -0.9012831287
 H         -0.4004828574        0.5069080432        0.8806562794
 H         -0.3767126854       -1.0225361066       -0.0351031040
 H          3.8296169008       -0.0204400190        0.4482039465
 H          4.0961079168        1.7615475338        0.4236780384
  12
    -0.000387 !GC
 C          0.0000000000        0.0000000000        0.0000000000
 O          1.4347904224        0.0000000000        0.0000000000
 C          2.1115160236        1.1218085200        0.0000000000
 O          1.6569734970        2.2416990180       -0.0007093764
 C          3.6186943306        0.8578119913        0.0086757039
 C          4.1880760519        2.1714986777       -0.1156541027
 N          4.6570699869        3.2107697226       -0.2144728407
 H         -0.2846506122        0.3050308204       -1.0029646569
 H         -0.2787393342        0.7483300929        0.7355749491
 H         -0.4533162667       -0.9666629850        0.2420234530
 H          3.9131938564        0.2662642916       -0.8567004218
 H          3.9280847864        0.4366981351        0.9643542689
