  12
  -22.1448929500000       0.139478314509370      !
 C         -2.3650929157        0.8516491721       -0.2446124766
 O         -1.0998115940        0.6323413360        0.3922874105
 C         -0.4345752360       -0.4755948488        0.1410657105
 O         -0.8037266777       -1.3687047147       -0.5844646926
 C          0.8966038738       -0.4803573058        0.8864520015
 C          1.8704982188        0.1690393599        0.0531486611
 N          2.6335396544        0.6915682381       -0.6205985585
 H         -2.6670964091       -0.0416042069       -0.7913211885
 H         -2.2552420408        1.6943978207       -0.9248126569
 H         -3.0812160849        1.0876691986        0.5391907611
 H          1.2104733147       -1.5096019857        1.0687287183
 H          0.8000837081        0.0760148715        1.8202588725
  12
  -22.1448928300000       0.139460604206009      !
 C         -2.3641532329        0.8522645316       -0.2450236969
 O         -1.0988052637        0.6326220859        0.3916574765
 C         -0.4346384165       -0.4761419871        0.1411563564
 O         -0.8049294217       -1.3694877522       -0.5834393265
 C          0.8968462233       -0.4815979866        0.8859447893
 C          1.8702120885        0.1693354177        0.0532132496
 N          2.6327675021        0.6930413695       -0.6201906227
 H         -3.0764155263        1.1018530207        0.5380036101
 H         -2.6728883376       -0.0455831730       -0.7803573853
 H         -2.2513672017        1.6861277591       -0.9357253203
 H          1.2111176837       -1.5109706244        1.0667104270
 H          0.8004809140        0.0733938529        1.8205618746
  12
  -22.1448217500000       0.129355659999344      !
 C         -2.3505748369        0.8593354691        0.2325733691
 O         -1.0991366336        0.6091548973       -0.4186432024
 C         -0.4373927122       -0.4854098491       -0.1020886284
 O         -0.8056352119       -1.3147663599        0.6955052203
 C          0.8835382253       -0.5563955552       -0.8612680968
 C          1.8673404763        0.1639147041       -0.1009443367
 N          2.6383658097        0.7429188142        0.5153129099
 H         -3.1410554687        0.3147784141       -0.2835726323
 H         -2.5121585874        1.9306707960        0.1624780198
 H         -2.3033683811        0.5340374675        1.2719478890
 H          0.7741052852       -0.0840990779       -1.8389597427
 H          1.1958886863       -1.5977217437       -0.9566339218
  12
  -22.1448927300000       0.139445847337436      !
 C         -2.3427407367        0.8857729654        0.2165556497
 O         -1.0886842674        0.6009990971       -0.4165455598
 C         -0.4377213150       -0.4965667276       -0.0926882451
 O         -0.8131580839       -1.3296717780        0.6979117598
 C          0.8860148995       -0.5759416353       -0.8470503934
 C          1.8628686321        0.1677890207       -0.1005769422
 N          2.6274232795        0.7661630498        0.5048714375
 H         -3.0604013726        1.0912378275       -0.5743701833
 H         -2.2085887349        1.7643453926        0.8452098405
 H         -2.6590316242        0.0330174480        0.8174411340
 H          0.7765799735       -0.1260336259       -1.8352437146
 H          1.2047519913       -1.6171914292       -0.9191202993
  12
  -22.1448918400000       0.139314579980723      !
 C         -2.3521643679        0.8742677490        0.2286155166
 O         -1.0988646252        0.6048431631       -0.4125420139
 C         -0.4372569865       -0.4889433588       -0.0972167993
 O         -0.8022856128       -1.3283101050        0.6916336446
 C          0.8820790814       -0.5551227883       -0.8603899003
 C          1.8665149697        0.1659023515       -0.1016922086
 N          2.6377452725        0.7457914594        0.5133001347
 H         -2.7013194760       -0.0151303942        0.7532489667
 H         -3.0489800167        1.1653449228       -0.5535302476
 H         -2.2058198574        1.6930588956        0.9314316400
 H          0.7688979053       -0.0811745387       -1.8368344547
 H          1.1963169743       -1.5956064030       -0.9589215085
  12
  -22.1448875100000       0.138677703045332      !
 C         -2.3571322967        0.8665227779        0.2363508317
 O         -1.1052146750        0.6069762056       -0.4113477021
 C         -0.4367695285       -0.4839699188       -0.1000132302
 O         -0.7962170627       -1.3263580307        0.6881163973
 C          0.8800175713       -0.5429427776       -0.8680924642
 C          1.8686595639        0.1646671212       -0.1023088805
 N          2.6434775352        0.7335177796        0.5184420711
 H         -2.1991020583        1.6268073647        1.0000107890
 H         -2.7381701010       -0.0477255279        0.6915760559
 H         -3.0331905027        1.2338583128       -0.5313290805
 H          0.7650833559       -0.0554360094       -1.8376203521
 H          1.1916853774       -1.5826901241       -0.9815437533
  12
  -22.1448813700000       0.137779590959835      !
 C         -2.3645449944        0.8504755715       -0.2452408989
 O         -1.0996487807        0.6327719295        0.3928197959
 C         -0.4343135485       -0.4751165796        0.1410098950
 O         -0.8045471158       -1.3679083522       -0.5842475378
 C          0.8967875089       -0.4808871946        0.8864190962
 C          1.8705422486        0.1690304241        0.0533333702
 N          2.6332353098        0.6916919640       -0.6206951752
 H         -2.2359748313        1.6252670534       -0.9994444299
 H         -3.0533220220        1.1833830410        0.5272741897
 H         -2.7122030446       -0.0728628189       -0.7085050132
 H          1.2105405731       -1.5103158302        1.0679453831
 H          0.8002695391        0.0749153419        1.8205638217
  12
  -22.1436257600000       3.648769996195180E-002 !
 C         -2.7684573064        0.0796049406        0.1126639822
 O         -1.4830894593        0.4456076518        0.6265971204
 C         -0.4144260418       -0.0088977254       -0.0062407309
 O         -0.4492840035       -0.7083546904       -0.9905529030
 C          0.8461331105        0.4856736948        0.6875227787
 C          2.0426606981        0.0298511891        0.0369808840
 N          3.0046342051       -0.3247542635       -0.4701972600
 H         -3.4806699774        0.7162399925        0.6279359636
 H         -2.9635579711       -0.9721931691        0.3222603722
 H         -2.8006784746        0.2409580730       -0.9651282401
 H          0.8369308401        0.1339724917        1.7229391916
 H          0.8321708692        1.5789933814        0.7018027080
