  12
    -1.560372 !GC
 C          0.0000000000        0.0000000000        0.0000000000
 C          1.5230995927        0.0000000000        0.0000000000
 C          2.1147383179        1.3676536580        0.0000000000
 C          3.3932620821        1.6738221960       -0.1094100791
 H         -0.3850017590       -1.0134340335        0.0740809080
 H         -0.3730436485        0.4557735671       -0.9159919461
 H         -0.3769158635        0.5706464877        0.8459324064
 H          1.9011730034       -0.5426927196       -0.8723929426
 H          1.8865515640       -0.5227737995        0.8900631169
 H          1.3722421107        2.1518639348        0.0954440819
 H          3.7341348147        2.6955402319       -0.1034000097
 H          4.1561346522        0.9203255928       -0.2043974799
  12
    -0.833883 !GC
 C          0.0000000000        0.0000000000        0.0000000000
 C          1.5288996818        0.0000000000        0.0000000000
 C          2.0253717802        1.4023062278        0.0000000000
 C          1.6541700296        2.3294951506       -0.8613930592
 H         -0.3829238650       -1.0161668569        0.0513130415
 H         -0.3667470487        0.4652849593       -0.9143536934
 H         -0.3851083110        0.5562325947        0.8515746512
 H          1.8971067571       -0.5171448656       -0.8908608202
 H          1.8988128492       -0.5199536472        0.8852770545
 H          2.7439932282        1.6219453179        0.7801201757
 H          2.0379041117        3.3351199325       -0.8294350199
 H          0.9419240495        2.1124544307       -1.6417580335
  12
    -0.750711 !GC
 C          0.0000000000        0.0000000000        0.0000000000
 C          1.5288731871        0.0000000000        0.0000000000
 C          2.0264420730        1.4020467627        0.0000000000
 C          1.8341482902        2.2655595068        0.9781504540
 H         -0.3803970891        0.5764728378        0.8385757117
 H         -0.3670899975       -1.0225901197        0.0797093536
 H         -0.3870635972        0.4339392705       -0.9198817522
 H          1.9134106465       -0.5401734568       -0.8672160850
 H          1.8821861616       -0.4964107757        0.9081262359
 H          2.5958743696        1.6743081407       -0.8803008666
 H          2.2170873627        3.2714813203        0.9449160331
 H          1.2693072075        1.9961107361        1.8564803062
  12
    -0.330279 !GC
 C          0.0000000000        0.0000000000        0.0000000000
 C          1.5288314262        0.0000000000        0.0000000000
 C          2.0704358946        1.3941662366        0.0000000000
 C          2.8811893715        1.8857241911       -0.9177154491
 H         -0.3802717535        0.5168954964        0.8764816260
 H         -0.3735156969       -1.0214058467        0.0056263679
 H         -0.3830465267        0.4984719400       -0.8884636029
 H          1.8996226099       -0.5405912866       -0.8725763341
 H          1.8825345244       -0.5168990017        0.8967268538
 H          1.7406015312        2.0151528734        0.8233991120
 H          3.2452963739        2.8981406316       -0.8773437158
 H          3.2203826367        1.2903151371       -1.7498162059
  12
    -0.324840 !GC
 C          0.0000000000        0.0000000000        0.0000000000
 C          1.5291650083        0.0000000000        0.0000000000
 C          2.0714221274        1.3939195592        0.0000000000
 C          2.8813601096        1.8852051422       -0.9183538739
 H         -0.3772417052        0.5023620960       -0.8867023246
 H         -0.3761852942        0.5175308019        0.8805736216
 H         -0.3842801103       -1.0176279904        0.0143285584
 H          1.9007127486       -0.5411580306       -0.8719473312
 H          1.8825168139       -0.5162980126        0.8970717796
 H          1.7388120998        2.0164453480        0.8211687518
 H          3.2425633376        2.8989544971       -0.8804226183
 H          3.2223064975        1.2885142615       -1.7489267517
  12
    -0.281563 !GC
 C          0.0000000000        0.0000000000        0.0000000000
 C          1.5346156185        0.0000000000        0.0000000000
 C          1.9799089697        1.4252067052        0.0000000000
 C          1.1321856691        2.4359872992       -0.0011154676
 H         -0.3745058182        0.5030970299        0.8875567723
 H         -0.3749991131       -1.0214167103        0.0003077909
 H         -0.3869019767        0.5085038221       -0.8806890508
 H          1.8954639911       -0.5150387805       -0.8909847771
 H          1.8947398749       -0.5143554960        0.8917314523
 H          3.0484278189        1.5953349435        0.0010683028
 H          1.4498545621        3.4645076711       -0.0035997094
 H          0.0665802667        2.2603886337        0.0013564519
  12
    -0.276191 !GC
 C          0.0000000000        0.0000000000        0.0000000000
 C          1.5345338631        0.0000000000        0.0000000000
 C          1.9787320093        1.4253872084        0.0000000000
 C          1.1307811085        2.4359789093       -0.0115735463
 H         -0.3765016702        0.5109100832        0.8828841345
 H         -0.3838491927       -1.0180570929       -0.0028528284
 H         -0.3764262931        0.5154304912       -0.8803501337
 H          1.8948340179       -0.5139080560       -0.8920011954
 H          1.8953496528       -0.5150001820        0.8913695595
 H          3.0468385561        1.5961729036        0.0061866108
 H          1.4483306246        3.4646693056       -0.0133967538
 H          0.0650061466        2.2601832001       -0.0214009135
  12
    -0.238686 !GC
 C          0.0000000000        0.0000000000        0.0000000000
 C          1.5285711464        0.0000000000        0.0000000000
 C          2.0250933940        1.4023586045        0.0000000000
 C          1.8379205514        2.2641591529        0.9810147065
 H         -0.3817795011        0.4348519837       -0.9197664195
 H         -0.3681709846        0.5822467655        0.8428681055
 H         -0.3837501508       -1.0147767286        0.0833996024
 H          1.9120791926       -0.5394134720       -0.8680902249
 H          1.8824056015       -0.4971764609        0.9075579371
 H          2.5852836845        1.6780165880       -0.8851163234
 H          2.2183972111        3.2708159881        0.9466697155
 H          1.2797845921        1.9924300988        1.8628489512
  12
    -0.210004 !GC
 C          0.0000000000        0.0000000000        0.0000000000
 C          1.5285822490        0.0000000000        0.0000000000
 C          2.0690168615        1.3945639837        0.0000000000
 C          1.3329617094        2.4865835369       -0.0899556171
 H         -0.3795134048        0.5441029076        0.8613262995
 H         -0.3746479995       -1.0193052253        0.0412736112
 H         -0.3818545309        0.4747262433       -0.9010485491
 H          1.9141490911       -0.5616526376       -0.8496284715
 H          1.8664657140       -0.4937099902        0.9184885020
 H          3.1429172147        1.4708245925        0.1135738376
 H          1.7658139453        3.4721160470       -0.0729171496
 H          0.2617887319        2.4390274220       -0.2005169107
  12
    -0.146459 !GC
 C          0.0000000000        0.0000000000        0.0000000000
 C          1.5229729224        0.0000000000        0.0000000000
 C          2.1146569169        1.3677833616        0.0000000000
 C          3.3927150838        1.6745677962       -0.1132754273
 H         -0.3729234428        0.5689531883        0.8472153083
 H         -0.3729030051       -1.0206163244        0.0747119182
 H         -0.3895853414        0.4498505037       -0.9102944576
 H          1.9008853883       -0.5422663559       -0.8733297043
 H          1.8865887764       -0.5227935568        0.8901511850
 H          1.3725685839        2.1515319396        0.0979035280
 H          3.7327573489        2.6963893654       -0.1066988040
 H          4.1556310773        0.9218544611       -0.2108717689
  12
    -0.120217 !GC
 C          0.0000000000        0.0000000000        0.0000000000
 C          1.5345073683        0.0000000000        0.0000000000
 C          1.9798152875        1.4251685795        0.0000000000
 C          2.6619239758        1.9578367238        0.9956827107
 H         -0.3739736084        0.4840863739       -0.8980223629
 H         -0.3841874693        0.5282687423        0.8699908431
 H         -0.3783815105       -1.0198720311        0.0221660722
 H          1.9111424588       -0.5370636907       -0.8685498858
 H          1.8786585286       -0.4911503874        0.9139617855
 H          1.7319382977        2.0065377876       -0.8778882554
 H          2.9906317989        2.9830524511        0.9957577326
 H          2.9086366753        1.3721796134        1.8690417978
  12
    -0.115386 !GC
 C          0.0000000000        0.0000000000        0.0000000000
 C          1.5343347736        0.0000000000        0.0000000000
 C          1.9788306727        1.4254524456        0.0000000000
 C          2.6717273948        1.9555036161        0.9900405004
 H         -0.3753941328        0.4919009182       -0.8936900276
 H         -0.3723927853        0.5369344616        0.8689276272
 H         -0.3877897701       -1.0162529712        0.0258201508
 H          1.9102969543       -0.5371377695       -0.8685368208
 H          1.8785727487       -0.4912037541        0.9137392304
 H          1.7195797673        2.0099515800       -0.8725799060
 H          2.9990235763        2.9808368499        0.9902765136
 H          2.9308520025        1.3667081669        1.8574611045
  12
    -0.106841 !GC
 C          0.0000000000        0.0000000000        0.0000000000
 C          1.5232287864        0.0000000000        0.0000000000
 C          2.1151163874        1.3676383522        0.0000000000
 C          3.3931869817        1.6738177904       -0.1151359305
 H         -0.3850395644        0.4536349235       -0.9094293209
 H         -0.3601079083        0.5720009166        0.8540124473
 H         -0.3896367771       -1.0129766960        0.0754534491
 H          1.9016601010       -0.5435354429       -0.8715074948
 H          1.8862439343       -0.5220735870        0.8904317311
 H          1.3728835698        2.1519491118        0.0977065402
 H          3.7341695150        2.6953261433       -0.1096708892
 H          4.1552869673        0.9205470244       -0.2166054799
  12
    -0.104215 !GC
 C          0.0000000000        0.0000000000        0.0000000000
 C          1.5289047285        0.0000000000        0.0000000000
 C          2.0260831000        1.4021330839        0.0000000000
 C          1.8402387123        2.2633953689        0.9815271119
 H         -0.3787504907       -1.0156327280        0.0822984499
 H         -0.3708428141        0.4367474911       -0.9266414816
 H         -0.3849825507        0.5805124155        0.8352616341
 H          1.9131666001       -0.5399715613       -0.8674540955
 H          1.8823878154       -0.4965682878        0.9078897230
 H          2.5898727267        1.6764898065       -0.8832809403
 H          2.2249575573        3.2687050475        0.9491677209
 H          1.2795415947        1.9924967361        1.8620933419
  12
    -0.097841 !GC
 C          0.0000000000        0.0000000000        0.0000000000
 C          1.5345389097        0.0000000000        0.0000000000
 C          1.9794519296        1.4252403634        0.0000000000
 C          2.6682980667        1.9561091549        0.9921481477
 H         -0.3723181089        0.5382871955        0.8681987831
 H         -0.3879125303       -1.0160876630        0.0279192183
 H         -0.3763002208        0.4899222574       -0.8948417520
 H          1.9108985965       -0.5368600233       -0.8687853458
 H          1.8788612478       -0.4913108637        0.9137274336
 H          1.7257983973        2.0082677163       -0.8751379830
 H          2.9989333353        2.9807420822        0.9909204805
 H          2.9192806560        1.3693770310        1.8635972459
  12
    -0.094230 !GC
 C          0.0000000000        0.0000000000        0.0000000000
 C          1.5344613178        0.0000000000        0.0000000000
 C          1.9789259812        1.4253187949        0.0000000000
 C          2.6683064947        1.9560534112        0.9921026313
 H         -0.3874676202        0.5302204632        0.8663223121
 H         -0.3725328692       -1.0210291815        0.0191162067
 H         -0.3751052201        0.4834453371       -0.8999561119
 H          1.9105820021       -0.5375614615       -0.8676045282
 H          1.8785372069       -0.4911860778        0.9136478494
 H          1.7217263750        2.0094673044       -0.8739093058
 H          2.9961351594        2.9813851066        0.9930702823
 H          2.9250712661        1.3672178234        1.8605507460
  12
    -0.091910 !GC
 C          0.0000000000        0.0000000000        0.0000000000
 C          1.5288552715        0.0000000000        0.0000000000
 C          2.0261110669        1.4021179436        0.0000000000
 C          1.6527865818        2.3300163704       -0.8597828289
 H         -0.3785853540        0.4613344175       -0.9085845181
 H         -0.3690562253        0.5584023026        0.8587731875
 H         -0.3869486350       -1.0156057987        0.0543026365
 H          1.8968746943       -0.5173928865       -0.8908516720
 H          1.8985015576       -0.5201350941        0.8852051120
 H          2.7471078111        1.6206501457        0.7782813450
 H          2.0356899681        3.3360000476       -0.8272736376
 H          0.9386903010        2.1135009631       -1.6383799966
  12
    -0.054346 !GC
 C          0.0000000000        0.0000000000        0.0000000000
 C          1.5288102304        0.0000000000        0.0000000000
 C          2.0701526213        1.3942114469        0.0000000000
 C          2.8648967791        1.8922201269        0.9280671990
 H         -0.3807667656        0.4947224471        0.8890518659
 H         -0.3771909189       -1.0198934223       -0.0213799726
 H         -0.3788374652        0.5223643691       -0.8763198195
 H          1.8833524469       -0.5175237914       -0.8958869937
 H          1.8988583186       -0.5399753289        0.8733441681
 H          1.7534741739        2.0100016259       -0.8326298949
 H          3.2233219560        2.9067989869        0.8910624451
 H          3.1962316573        1.3001718326        1.7657043054
  12
    -0.040991 !GC
 C          0.0000000000        0.0000000000        0.0000000000
 C          1.5346188988        0.0000000000        0.0000000000
 C          1.9798596784        1.4252389912        0.0000000000
 C          1.1320668817        2.4361550438       -0.0023881941
 H         -0.3721886822        0.5177027110       -0.8808455787
 H         -0.3732767087        0.5123796451        0.8835498700
 H         -0.3909834316       -1.0154215256       -0.0032308622
 H          1.8950926538       -0.5150324001       -0.8911394753
 H          1.8947322455       -0.5144798718        0.8916582422
 H          3.0482155139        1.5953673793        0.0010422767
 H          1.4497599005        3.4646861913       -0.0015343872
 H          0.0664793107        2.2606331080       -0.0035246294
  12
    -0.039279 !GC
 C          0.0000000000        0.0000000000        0.0000000000
 C          1.5288842896        0.0000000000        0.0000000000
 C          2.0703613520        1.3942193788        0.0000000000
 C          1.3354993502        2.4861541220       -0.0965274747
 H         -0.3781298271       -1.0183350972        0.0371829594
 H         -0.3735781211        0.4773306439       -0.9030232529
 H         -0.3851685852        0.5430878360        0.8602787303
 H          1.9154771470       -0.5623833956       -0.8487336896
 H          1.8662430621       -0.4929296130        0.9190470403
 H          3.1431413876        1.4703732756        0.1240879771
 H          1.7686841065        3.4716669846       -0.0773829645
 H          0.2650723982        2.4386552080       -0.2146554574
  12
    -0.038770 !GC
 C          0.0000000000        0.0000000000        0.0000000000
 C          1.5344861725        0.0000000000        0.0000000000
 C          1.9795299813        1.4251958280        0.0000000000
 C          1.1317347955        2.4358250520       -0.0071550693
 H         -0.3744694706        0.5063721882       -0.8855163182
 H         -0.3878501335        0.5043931885        0.8825015060
 H         -0.3741673707       -1.0215344760       -0.0046184339
 H          1.8949732344       -0.5141619061       -0.8918370750
 H          1.8950458409       -0.5150570818        0.8913699165
 H          3.0479255472        1.5954748602        0.0032689241
 H          1.4493825958        3.4645236853       -0.0106919264
 H          0.0660539373        2.2600095138       -0.0110150884
  12
    -0.036297 !GC
 C          0.0000000000        0.0000000000        0.0000000000
 C          1.5288680143        0.0000000000        0.0000000000
 C          2.0707873947        1.3940689011        0.0000000000
 C          1.3349182093        2.4863359888       -0.0844787395
 H         -0.3744462850       -1.0194871832        0.0426887628
 H         -0.3813251510        0.4725615165       -0.9022923703
 H         -0.3808390176        0.5460463543        0.8601809986
 H          1.9153723240       -0.5624275217       -0.8487954491
 H          1.8661417747       -0.4931467095        0.9188100801
 H          3.1448622753        1.4695338586        0.1146567686
 H          1.7681577224        3.4719026748       -0.0649973094
 H          0.2634434397        2.4390684075       -0.1917615541
  12
    -0.022920 !GC
 C          0.0000000000        0.0000000000        0.0000000000
 C          1.5346683557        0.0000000000        0.0000000000
 C          1.9798309175        1.4252512636        0.0000000000
 C          2.6739300649        1.9543877558        0.9894764952
 H         -0.3723540921       -1.0214912998        0.0197505024
 H         -0.3750615596        0.4820244723       -0.9005211797
 H         -0.3890179888        0.5314841151        0.8653809307
 H          1.9113835631       -0.5376995800       -0.8679069392
 H          1.8785551632       -0.4905899156        0.9140641520
 H          1.7243527031        2.0089645786       -0.8742652262
 H          3.0055808368        2.9785162172        0.9877989671
 H          2.9302460644        1.3659781670        1.8580965581
  12
    -0.020248 !GC
 C          0.0000000000        0.0000000000        0.0000000000
 C          1.5347633585        0.0000000000        0.0000000000
 C          1.9802894966        1.4250457831        0.0000000000
 C          2.6641415477        1.9566654496        0.9950903455
 H         -0.3860859480       -1.0156834154        0.0226681906
 H         -0.3714598826        0.4973747614       -0.8933596658
 H         -0.3784284298        0.5378067850        0.8673019263
 H          1.9119118419       -0.5383252104       -0.8667384678
 H          1.8783169346       -0.4904116068        0.9142068414
 H          1.7326467674        2.0067459314       -0.8783360185
 H          2.9944050403        2.9813746589        0.9954746485
 H          2.9138327675        1.3692907013        1.8666581236
  12
    -0.009257 !GC
 C          0.0000000000        0.0000000000        0.0000000000
 C          1.5285344322        0.0000000000        0.0000000000
 C          2.0698012600        1.3943153559        0.0000000000
 C          1.3336129672        2.4864656319       -0.0856720317
 H         -0.3774813814        0.4710511142       -0.9033784096
 H         -0.3786576753        0.5432250961        0.8616458724
 H         -0.3796022987       -1.0190473067        0.0410412269
 H          1.9142873988       -0.5618910015       -0.8494470064
 H          1.8661602060       -0.4937647987        0.9184854433
 H          3.1442458670        1.4699317445        0.1106561314
 H          1.7667760423        3.4719385591       -0.0705927281
 H          0.2619579418        2.4390362836       -0.1902087611
  12
    -0.008767 !GC
 C          0.0000000000        0.0000000000        0.0000000000
 C          1.5344894528        0.0000000000        0.0000000000
 C          1.9794806882        1.4252281046        0.0000000000
 C          1.1316225967        2.4359907156       -0.0084281266
 H         -0.3721527221       -1.0215543322        0.0044078423
 H         -0.3861274233        0.5106382049       -0.8788718708
 H         -0.3782669105        0.5032445737        0.8872942836
 H          1.8946017884       -0.5141552609       -0.8919916639
 H          1.8950382095       -0.5151814083        0.8912966125
 H          3.0477132974        1.5955072415        0.0032425906
 H          1.4492812479        3.4647076406       -0.0086259435
 H          0.0659817141        2.2602475761       -0.0158969603
  12
    -0.007568 !GC
 C          0.0000000000        0.0000000000        0.0000000000
 C          1.5347421626        0.0000000000        0.0000000000
 C          1.9800042035        1.4250730721        0.0000000000
 C          1.1319638002        2.4355510098       -0.0052273803
 H         -0.3865805433       -1.0158130156       -0.0027794532
 H         -0.3751388387        0.5201830771       -0.8787679922
 H         -0.3742126587        0.5155784267        0.8823564492
 H          1.8957585619       -0.5154968673       -0.8900641622
 H          1.8947031834       -0.5143361742        0.8916429420
 H          3.0488906199        1.5953658938        0.0035015955
 H          1.4488787532        3.4644726663       -0.0075959279
 H          0.0661816071        2.2592623306       -0.0052065012
  12
    -0.001970 !GC
 C          0.0000000000        0.0000000000        0.0000000000
 C          1.5288519912        0.0000000000        0.0000000000
 C          2.0261588860        1.4020837563        0.0000000000
 C          1.6519345628        2.3301642704       -0.8589644169
 H         -0.3808921360        0.5552235959        0.8526542694
 H         -0.3707802838       -1.0230624169        0.0525526937
 H         -0.3828608187        0.4585964282       -0.9094851228
 H          1.8972463739       -0.5173976239       -0.8906945479
 H          1.8985092032       -0.5200115804        0.8852790229
 H          2.7472531005        1.6206430697        0.7784074954
 H          2.0373729658        3.3352302117       -0.8285894838
 H          0.9351077508        2.1145174855       -1.6353350887
