  12
  -12.6064934600000       0.143545724278022      !
 C          1.7413074482       -0.3152947353       -0.2212847837
 C          0.5662923905        0.5853177070        0.1604153165
 C         -0.6781825334       -0.2139778696        0.3821590611
 C         -1.8070690661       -0.0476119224       -0.2808176417
 H          1.9300417816       -1.0469825333        0.5609926174
 H          2.6414198459        0.2768116275       -0.3657591502
 H          1.5240567166       -0.8476600137       -1.1445150044
 H          0.3960775833        1.3242827107       -0.6244530281
 H          0.8139142469        1.1185313899        1.0826508068
 H         -0.6018525652       -0.9815274495        1.1420182654
 H         -2.6780643461       -0.6509477247       -0.0893792668
 H         -1.9086748014        0.7070012703       -1.0438235971
  12
  -12.6064934500000       0.143544205292754      !
 C          1.7416616451       -0.3151745592       -0.2208294790
 C          0.5661796536        0.5852250420        0.1599413556
 C         -0.6780833784       -0.2144426027        0.3815779747
 C         -1.8074232044       -0.0472519349       -0.2803349291
 H          2.6414086459        0.2774145578       -0.3652788625
 H          1.5250744385       -0.8480526374       -1.1439194010
 H          1.9306018584       -1.0464204687        0.5618891276
 H          0.3959216739        1.3240017076       -0.6251307257
 H          0.8132280370        1.1187145513        1.0821943900
 H         -0.6013077699       -0.9827054924        1.1407038591
 H         -2.6782676366       -0.6508100022       -0.0889527453
 H         -1.9095796404        0.7082873973       -1.0423794554
  12
  -12.6064934100000       0.143538129511876      !
 C          1.7418394253       -0.3151039765       -0.2206949979
 C          0.5661749639        0.5851381825        0.1598093340
 C         -0.6780828272       -0.2145368517        0.3814306017
 C         -1.8076054239       -0.0471481428       -0.2801978948
 H          1.5252653747       -0.8482425771       -1.1436363362
 H          1.9306980944       -1.0461365728        0.5621791173
 H          2.6416743188        0.2774103758       -0.3652450113
 H          0.3959895768        1.3236683895       -0.6254848816
 H          0.8130770285        1.1189590194        1.0818958635
 H         -0.6010763146       -0.9831741128        1.1401207817
 H         -2.6785548728       -0.6504808064       -0.0885258688
 H         -1.9098913862        0.7085061371       -1.0420835876
  12
  -12.6064921800000       0.143351424734633      !
 C          1.7422952002       -0.3704745300       -0.0880848536
 C          0.5672825740        0.5304776653        0.2928710729
 C         -0.6841650821        0.1153327120       -0.4130877877
 C         -1.8035395585       -0.2417025596        0.1878414956
 H          1.9171278625       -0.3351891760       -1.1610025061
 H          1.5342555916       -1.4004877650        0.1924693877
 H          2.6472738665       -0.0483867878        0.4207494154
 H          0.8062848925        1.5606000175        0.0138609457
 H          0.4108016816        0.4981423993        1.3724738356
 H         -0.6215692429        0.1097493435       -1.4940135268
 H         -2.6802056348       -0.5374279629       -0.3628956702
 H         -1.8913891437       -0.2477781267        1.2621626577
  12
  -12.6064920800000       0.143336256163487      !
 C          1.7423949451       -0.3704225629       -0.0876605959
 C          0.5672477602        0.5307370463        0.2922940604
 C         -0.6840615770        0.1144295117       -0.4132141280
 C         -1.8036969869       -0.2411975679        0.1880850460
 H          1.5344769260       -1.4001327935        0.1941213493
 H          2.6472716449       -0.0475352212        0.4208614171
 H          1.9172477986       -0.3363561173       -1.1606285944
 H          0.8060837131        1.5605507344        0.0119851822
 H          0.4107474918        0.4997033279        1.3719433420
 H         -0.6213253885        0.1072596030       -1.4941254515
 H         -2.6802980251       -0.5377126385       -0.3623385657
 H         -1.8917554576       -0.2455199132        1.2624094156
  12
  -12.6064920200000       0.143327155790963      !
 C          1.7424385366       -0.3704215790       -0.0877490500
 C          0.5672592457        0.5306656723        0.2924089183
 C         -0.6841061312        0.1146264965       -0.4131809186
 C         -1.8037261884       -0.2412943629        0.1880326161
 H          2.6473320936       -0.0477465120        0.4208631904
 H          1.9173488910       -0.3360815212       -1.1606860680
 H          1.5345898707       -1.4002355978        0.1936868262
 H          0.8060789786        1.5605609197        0.0124002164
 H          0.4107677345        0.4993510709        1.3720524755
 H         -0.6212197622        0.1072972928       -1.4940535929
 H         -2.6804960736       -0.5371357358       -0.3624498646
 H         -1.8917304537       -0.2461080318        1.2623293154
  12
  -12.6054273300000       4.645482589094831E-002 !
 C          1.4605938080       -0.3449612943       -0.4954572858
 C          0.6769539432        0.4652786658        0.5289173978
 C         -0.8123352565        0.3287531062        0.4416440444
 C         -1.4899277060       -0.4090604608       -0.4179181331
 H          1.2552219284       -1.4066542644       -0.3826197815
 H          2.5271749549       -0.1852797608       -0.3572089200
 H          1.1966216793       -0.0429966307       -1.5060210018
 H          0.9257005893        1.5257404202        0.4215714345
 H          0.9843165010        0.1714583236        1.5374585981
 H         -1.3492831085        0.9132938888        1.1795499407
 H         -2.5661957954       -0.4432189963       -0.4025726366
 H         -1.0107916745       -1.0091068640       -1.1715927502
  12
  -12.6054272600000       4.645138494045793E-002 !
 C          1.4608724180       -0.3449537086       -0.4954263832
 C          0.6768566393        0.4653955695        0.5286683770
 C         -0.8124599670        0.3282782628        0.4420890602
 C         -1.4900266942       -0.4087772569       -0.4180782542
 H          1.1969901274       -0.0432973552       -1.5061306756
 H          1.2555059732       -1.4066257879       -0.3823731357
 H          2.5275067188       -0.1852910661       -0.3571214055
 H          0.9252898975        1.5259475229        0.4207460988
 H          0.9846073647        0.1721081632        1.5372538762
 H         -1.3494323774        0.9115476565        1.1810225385
 H         -2.5662893911       -0.4423255815       -0.4032253046
 H         -1.0109080841       -1.0080272676       -1.1724028253
  12
  -12.6054272500000       4.645089339685877E-002 !
 C          1.4607506637       -0.3449506551       -0.4954435746
 C          0.6769163082        0.4653445810        0.5287778950
 C         -0.8123776259        0.3285156628        0.4418469329
 C         -1.4900096801       -0.4089082802       -0.4180063114
 H          2.5273501822       -0.1851492076       -0.3572784285
 H          1.1967294962       -0.0432276239       -1.5060650344
 H          1.2554066290       -1.4066280440       -0.3824245401
 H          0.9255709116        1.5258394149        0.4214435152
 H          0.9842547489        0.1717553185        1.5373449361
 H         -1.3493334585        0.9132929548        1.1795423071
 H         -2.5663020229       -0.4423808164       -0.4031609890
 H         -1.0108503686       -1.0101621089       -1.1707048371
