  15
        -17.72953266
 C          2.5669963051       -0.3173136509       -0.0100183646
 C          1.2967863591        0.5253570288        0.0034109726
 C          0.0434988432       -0.3461488268        0.0019006414
 C         -1.2316712899        0.4960544509        0.0303663284
 O         -2.4095193325       -0.2781270946       -0.0657587786
 H          3.4469618610        0.3206756533       -0.0131350922
 H          2.6092357112       -0.9577146751        0.8678660256
 H          2.5956376391       -0.9475937354       -0.8956639405
 H          1.2907706242        1.1622053537        0.8906875665
 H          1.2825843635        1.1776073088       -0.8720928371
 H          0.0292678568       -0.9717669610       -0.8930615541
 H          0.0608116694       -1.0053367159        0.8734671976
 H         -1.2562605738        1.1099050591        0.9418821922
 H         -1.2584946604        1.1665456079       -0.8323807210
 H         -2.4362239625       -0.9050765665        0.6704814035
  15
        -17.72950084
 C          2.4173769983       -0.2846271951       -0.1672428055
 C          1.0213207806        0.2916298778       -0.3677766448
 C          0.0712422308       -0.1127031413        0.7579154870
 C         -1.3547898604        0.3787059726        0.5052593544
 O         -1.9422366386       -0.1818703255       -0.6505050078
 H          2.8404005771        0.0628937879        0.7726406324
 H          2.3836781646       -1.3715790593       -0.1467671925
 H          3.0754557272        0.0232015046       -0.9756880442
 H          1.0780967736        1.3814145653       -0.4119321708
 H          0.6114847172       -0.0538049084       -1.3191782821
 H          0.0652719398       -1.2011578539        0.8551055763
 H          0.4172823222        0.3069683995        1.7037018114
 H         -1.9817386259        0.1705642978        1.3834155247
 H         -1.3543967757        1.4576099835        0.3312458339
 H         -1.9867290362       -1.1423823912       -0.5436264020
  15
        -17.72878542
 C          2.1478613582       -0.3013667628        0.5910150677
 C          1.3910979029        0.5133495061       -0.4527348702
 C         -0.0075760723       -0.0310150191       -0.7427183224
 C         -0.9650717942        0.1207928774        0.4403804746
 O         -2.3016327590       -0.1961966049        0.1042216122
 H          1.6596153643       -0.2440144694        1.5599886895
 H          2.2033540959       -1.3455405764        0.2918824560
 H          3.1608972980        0.0779094980        0.6992999605
 H          1.3113650847        1.5496435344       -0.1181784460
 H          1.9606413013        0.5086178937       -1.3843295203
 H         -0.4354989572        0.5093977447       -1.5902180398
 H          0.0651642339       -1.0860314014       -1.0178625971
 H         -0.6383117231       -0.4989407656        1.2847930188
 H         -0.9919728552        1.1634188885        0.7676540955
 H         -2.3410684492       -1.1159747265       -0.1924471314
  15
        -17.72855418
 C          2.0212840009       -0.6779442070        0.0039863421
 C          1.1023532786        0.4340915254       -0.4884432111
 C          0.0342330422        0.8188386809        0.5376588643
 C         -1.1041833304       -0.2005325725        0.6151385523
 O         -1.8229251624       -0.3232823016       -0.5947737411
 H          1.4603888503       -1.5887241882        0.1969005651
 H          2.7783645268       -0.8990327242       -0.7442944725
 H          2.5217949773       -0.3799027074        0.9227561705
 H          1.7048317111        1.3148031411       -0.7197218391
 H          0.6062180020        0.1147072544       -1.4074580025
 H          0.4851588020        0.9084261523        1.5268750031
 H         -0.3879069863        1.7908817086        0.2711487942
 H         -0.7123248066       -1.1990173436        0.8180941835
 H         -1.7874711385        0.0709555005        1.4320114578
 H         -2.2050755364        0.5364497350       -0.8192765181
  15
        -17.72826622
 C          2.4572203819       -0.2533096845       -0.1104079297
 C          1.0531618635        0.2826200680       -0.3653728886
 C          0.0630003834       -0.2204854820        0.6846479263
 C         -1.3423266837        0.3608883225        0.5128739241
 O         -2.0428833004       -0.1615862716       -0.5975982282
 H          3.1481904581        0.1126683943       -0.8656521451
 H          2.8143530176        0.0644617790        0.8663612990
 H          2.4602868980       -1.3404393464       -0.1385528952
 H          1.0734819624        1.3749905888       -0.3463297807
 H          0.7315725628       -0.0317653288       -1.3604342471
 H         -0.0023311973       -1.3093532837        0.6382046977
 H          0.4216631845        0.0553160256        1.6775986760
 H         -1.9575870332        0.1028986093        1.3783047245
 H         -1.2875560848        1.4560609307        0.4419110300
 H         -1.5601694780        0.0577564976       -1.4058681296
  15
        -17.72805517
 C          1.6096947448       -0.7651737977       -0.5216373798
 C          1.3230452328        0.5802896558        0.1350523371
 C          0.0097648384        0.5971449322        0.9197118375
 C         -1.2411994912        0.5220869342        0.0384962544
 O         -1.4999654187       -0.7543038527       -0.5086620552
 H          0.8028115840       -1.0382907090       -1.1963336908
 H          2.5358773521       -0.7187175631       -1.0895735474
 H          1.7091460905       -1.5429479851        0.2325070636
 H          2.1395833836        0.8262710282        0.8181369654
 H          1.2872610854        1.3574088621       -0.6315677975
 H          0.0006506622       -0.2326073627        1.6301805253
 H         -0.0475405656        1.5268643575        1.4885355692
 H         -2.1132278560        0.8550387264        0.6190028031
 H         -1.1322193894        1.1869093936       -0.8220591046
 H         -1.6457999872       -1.3803863306        0.2138215319
  15
        -17.72804066
 C          2.5573397270       -0.3522554721        0.0020498935
 C          1.3024475239        0.5119719574        0.0299397212
 C          0.0349942680       -0.3361929544       -0.0174272738
 C         -1.2269375742        0.5196790601        0.0231483957
 O         -2.3562220914       -0.3312034196       -0.0350265927
 H          2.5857054478       -0.9519750823       -0.9044725540
 H          3.4485039397        0.2693221414        0.0327414373
 H          2.5752175365       -1.0238382832        0.8570137881
 H          1.2971969321        1.1170137322        0.9391696767
 H          1.3108883544        1.1942442898       -0.8228059507
 H          0.0166816998       -0.9347263557       -0.9300932105
 H          0.0114378399       -1.0250837006        0.8290495010
 H         -1.2421531660        1.1082107137        0.9509862501
 H         -1.2301584609        1.2132248660       -0.8290300725
 H         -3.1624920248        0.2012774451       -0.0159346008
  15
        -17.72791085
 C          2.4158087608       -0.3048555472       -0.1566103761
 C          1.0233601530        0.2763088357       -0.3658485301
 C          0.0619168273       -0.1410869385        0.7447395003
 C         -1.3468518132        0.3974043433        0.5115058058
 O         -1.8921108391       -0.2174646901       -0.6408072878
 H          2.8305416856        0.0327051023        0.7906399913
 H          2.3769201701       -1.3916297847       -0.1461158057
 H          3.0824981554        0.0078172325       -0.9561970437
 H          1.0836439312        1.3667190484       -0.3974888322
 H          0.6197176174       -0.0645641308       -1.3209498393
 H          0.0092406349       -1.2304078137        0.7873206980
 H          0.4209040588        0.2265101257        1.7072826165
 H         -1.9728117689        0.1756885361        1.3869243130
 H         -1.3067406458        1.4869724316        0.3761956289
 H         -2.7798550449        0.1279429244       -0.7997295642
  15
        -17.72731509
 C          2.1590794627       -0.2528209445       -0.5723231376
 C          1.3828703095        0.4306637939        0.5484073976
 C         -0.0319125694       -0.1179045522        0.7237624423
 C         -0.9520648536        0.1948652026       -0.4531177064
 O         -2.2622802296       -0.2248948116       -0.1164521277
 H          2.1789511699       -1.3289874954       -0.4175693707
 H          1.7076487824       -0.0511412473       -1.5399293070
 H          3.1836370806        0.1101531889       -0.5937355141
 H          1.9209979923        0.2893543252        1.4875902213
 H          1.3313668774        1.5040819212        0.3539240748
 H         -0.0006599194       -1.2000812181        0.8625322327
 H         -0.4852929334        0.3153459614        1.6176972977
 H         -0.9406519373        1.2759975686       -0.6509530222
 H         -0.6107501301       -0.3313145286       -1.3530692782
 H         -2.8563493905       -0.0498397996       -0.8580515589
  15
        -17.72716873
 C          2.0472519560       -0.5859840476       -0.2678598788
 C          1.1350802987        0.2326487827        0.6397698632
 C          0.0166676611        0.9490422063       -0.1218036731
 C         -1.0778662768        0.0188645865       -0.6517153750
 O         -1.9380549261       -0.4708324104        0.3578328477
 H          2.8463394151       -1.0394166730        0.3134779090
 H          1.4993620658       -1.3807336775       -0.7674673342
 H          2.4939444344        0.0506378544       -1.0280223088
 H          0.7076091680       -0.4152496665        1.4079715757
 H          1.7358400074        0.9865796866        1.1525851229
 H         -0.4583787205        1.6804674670        0.5354768343
 H          0.4471401750        1.4850655100       -0.9687953450
 H         -1.7309196380        0.5723987076       -1.3308857540
 H         -0.6373774106       -0.8179162012       -1.2081975247
 H         -1.4157869531       -0.9714451287        0.9994667274
  15
        -17.72680025
 C          2.0349070136       -0.4707751608       -0.4199004675
 C          1.0851994108       -0.0281325399        0.6875617109
 C          0.0161144199        0.9538894726        0.2047886906
 C         -1.0793674882        0.2830864898       -0.6207160670
 O         -1.8097236290       -0.5986075574        0.2125674698
 H          2.5332614455        0.3912178163       -0.8586387490
 H          2.7923961253       -1.1396370521       -0.0186351407
 H          1.5017268008       -0.9976078637       -1.2070101202
 H          0.5860667295       -0.8974086816        1.1192383025
 H          1.6649866893        0.4508571679        1.4789489002
 H         -0.4615026817        1.4152323182        1.0709835499
 H          0.4756285038        1.7393434580       -0.3970001359
 H         -1.7478386266        1.0550320398       -1.0270005067
 H         -0.6368515726       -0.2676269242       -1.4599376521
 H         -2.4911784459       -1.0423947184       -0.3083521128
  15
        -17.72624811
 C          1.6300045529       -0.8506746732        0.3631900067
 C          1.3140881933        0.5888005889       -0.0247402097
 C          0.0071034225        0.7228589194       -0.8081559615
 C         -1.2504135492        0.5369143936        0.0409625139
 O         -1.4600747566       -0.8347415756        0.3204957276
 H          1.7695481437       -1.4592172891       -0.5274701741
 H          2.5394107748       -0.8937575273        0.9580365070
 H          0.8131288888       -1.2777320484        0.9373652283
 H          1.2554796350        1.2054933538        0.8751373503
 H          2.1283086917        0.9781800852       -0.6401743378
 H         -0.0407548968        1.7192487936       -1.2508166886
 H         -0.0133195065       -0.0131922209       -1.6133679319
 H         -1.1484067961        1.1026733540        0.9775990876
 H         -2.1123139384        0.9349151832       -0.5127190464
 H         -2.2815088043       -0.9375393558        0.8180242085
  15
        -17.72600458
 C          2.3849325927        0.2337834946       -0.0772899137
 C          1.0041863124        0.0483281323        0.5413701807
 C          0.0470589491       -0.7248971822       -0.3816384433
 C         -1.2430094465        0.0490663776       -0.6588167637
 O         -1.9680440120        0.3695531956        0.5100257153
 H          2.8438535772       -0.7311129146       -0.2810083381
 H          2.3140342961        0.7866277772       -1.0112031008
 H          3.0327825940        0.7857520135        0.5994894835
 H          1.1099647377       -0.4746098722        1.4930040118
 H          0.5717490953        1.0269860626        0.7597383390
 H          0.5277856856       -0.9161562737       -1.3415666632
 H         -0.2062696975       -1.6914681982        0.0578379079
 H         -1.0106087346        1.0112266368       -1.1220636323
 H         -1.8779379505       -0.5221893601       -1.3509177978
 H         -2.1999279930       -0.4495040246        0.9690176727
  15
        -17.72589028
 C          1.6597947884       -0.6938129726       -0.5650842328
 C          1.3657719712        0.5388366246        0.2837685694
 C         -0.0264435514        0.5342582845        0.9191473286
 C         -1.1790591002        0.5395422203       -0.0934864124
 O         -1.6617064887       -0.7500646350       -0.4138251145
 H          2.6992321853       -0.6868441742       -0.8849954343
 H          1.4871694579       -1.6026634502        0.0073110939
 H          1.0403181016       -0.7097532661       -1.4587075223
 H          2.1040852893        0.6010635052        1.0859889495
 H          1.4723328144        1.4348317798       -0.3319566777
 H         -0.1416146217       -0.3424472336        1.5601854931
 H         -0.1176422176        1.4198337893        1.5494784839
 H         -2.0453613619        1.0559077727        0.3267384298
 H         -0.8771674536        1.0678455214       -1.0082768654
 H         -0.9325789215       -1.2805418606       -0.7634510899
  15
        -17.72505788
 C          1.7799946645       -0.8354513879        0.2777746315
 C          1.2115814702        0.5766028199        0.1595873906
 C          0.0418407684        0.6612197430       -0.8301646053
 C         -1.3330216614        0.5015803888       -0.1728232596
 O         -1.5474795415       -0.7544096888        0.4377087338
 H          2.5291532873       -0.8802499605        1.0649702672
 H          1.0000330093       -1.5594856172        0.4977159586
 H          2.2512693398       -1.1272662078       -0.6583473886
 H          0.8847367641        0.9311170929        1.1401919730
 H          2.0101540753        1.2429131551       -0.1719157258
 H          0.0415325747        1.6339848800       -1.3235913439
 H          0.1585286397       -0.1055882770       -1.5973419278
 H         -1.4849902189        1.3049195585        0.5607923669
 H         -2.1115503386        0.5840366549       -0.9359071053
 H         -0.9772714127       -0.8209548012        1.2155867260
