  7
    -0.203004 !GC
 C          0.0000000000        0.0000000000        0.0000000000
 N          1.4565117385        0.0000000000        0.0000000000
 H         -0.2450110418        1.0508259320        0.0000000000
 H         -0.4507244762       -0.4674869101        0.8866186555
 H         -0.4517402190       -0.4662088012       -0.8867843743
 H          1.7958664080        0.4975743227       -0.8163043475
 H          1.7959115492        0.4937181747        0.8180363672
  7
    -0.086231 !GC
 C          0.0000000000        0.0000000000        0.0000000000
 N          1.4563742179        0.0000000000        0.0000000000
 H         -0.3483117770        1.0318500778        0.0000000000
 H         -0.3487415270       -0.4811112883        0.9126184758
 H         -0.4510202659       -0.5177083021       -0.8580970622
 H          1.7956582346       -0.9560684692       -0.0050375362
 H          1.7957794080        0.4452544349       -0.8454074351
  7
    -0.003258 !GC
 C          0.0000000000        0.0000000000        0.0000000000
 N          1.4561839600        0.0000000000        0.0000000000
 H         -0.4502235284        1.0026299674        0.0000000000
 H         -0.2451027058       -0.4896460975        0.9297751542
 H         -0.4498696673       -0.5676097325       -0.8265949636
 H          1.7958321972       -0.9539524861        0.0573771794
 H          1.7957768382        0.4914558357        0.8194084731
  7
    -0.002518 !GC
 C          0.0000000000        0.0000000000        0.0000000000
 N          1.4563467138        0.0000000000        0.0000000000
 H         -0.3484357123        1.0317674851        0.0000000000
 H         -0.2451494571       -0.4349799743        0.9565035287
 H         -0.5503216652       -0.5444423383       -0.7940377112
 H          1.7957724257        0.5421861623        0.7870958709
 H          1.7956589992        0.4483457691       -0.8436108235
  7
    -0.002465 !GC
 C          0.0000000000        0.0000000000        0.0000000000
 N          1.4564842344        0.0000000000        0.0000000000
 H         -0.2451410654        1.0507559637        0.0000000000
 H         -0.3485592996       -0.4271426795        0.9390890016
 H         -0.5510147702       -0.4966112440       -0.8243556606
 H          1.7959805573       -0.9539001774        0.0583175087
 H          1.7957911411        0.4905826779        0.8197546465
