  13
  -23.5447005000000       0.500674598802478      !
 C         -1.9358799284       -1.2040306736       -0.0000383508
 C         -0.5560484156       -1.2071711967        0.0003118893
 C          0.1213103750        0.0000088132        0.0006119528
 C         -0.5553855581        1.2053159654        0.0003370034
 C         -1.9380933626        1.2036930110       -0.0000295980
 C         -2.6394030061        0.0006105646       -0.0000883338
 O         -3.9889036284       -0.0558113994       -0.0002519997
 Br         2.0446835673        0.0007436013       -0.0001152368
 H         -2.4897782972       -2.1284762543       -0.0001947314
 H         -0.0123362040       -2.1383529555        0.0003938774
 H         -0.0111727926        2.1363869901        0.0001765011
 H         -2.4676073279        2.1440410462       -0.0002361962
 H         -4.3795666031        0.8321174444       -0.0001661777
  13
  -23.5446979500000       0.499325401197522      !
 C         -1.9251406661       -1.2243616871       -0.0000727160
 C         -0.5424972886       -1.2112026230        0.0001078216
 C          0.1213005769        0.0012625900        0.0001124623
 C         -0.5689059230        1.2011462689        0.0001233259
 C         -1.9486172473        1.1832482917       -0.0000666295
 C         -2.6392497487       -0.0288322594       -0.0002037773
 O         -3.9892587522        0.0133309650       -0.0002951338
 Br         2.0445802827        0.0210933442        0.0000608096
 H         -2.4446029186       -2.1703086595       -0.0001106996
 H          0.0116389129       -2.1363989523        0.0003472766
 H         -0.0351805171        2.1380940021        0.0003298713
 H         -2.5123831988        2.1017019981       -0.0002541746
 H         -4.3707512203       -0.8785822120       -0.0004539360
