  16
        -19.85365439
 C          1.3982386266       -1.3918938563       -0.1261792541
 C          1.7904160415        0.0053025987        0.3363148686
 C          0.9277894042        1.1046931784       -0.2831805956
 C         -0.5183343604        1.0775564242        0.2170576875
 C         -1.3393727022       -0.0206762338       -0.3637393649
 O         -2.2016254398       -0.6384957044        0.2190523669
 H          1.4902269536       -1.4786354852       -1.2065552284
 H          0.3700328956       -1.6189514884        0.1506441001
 H          2.0420425232       -2.1379252807        0.3331512343
 H          2.8322146681        0.1875151708        0.0654838069
 H          1.7169823660        0.0601099791        1.4243337161
 H          0.9382586991        1.0068592075       -1.3702924367
 H          1.3611019240        2.0724739084       -0.0280487603
 H         -1.0149845877        1.9995508918       -0.1017962774
 H         -0.5625199153        1.0339524397        1.3064905592
 H         -1.1415310356       -0.2246525252       -1.4322197763
  16
        -19.85342873
 C          2.6823279050       -0.9508358400        0.1426234081
 C          1.2626936422       -0.6264079669       -0.3066571963
 C          0.8206718546        0.7547923224        0.1744646705
 C         -0.6107719792        1.0698474982       -0.2633989919
 C         -1.6032234128        0.1716262245        0.3909741399
 O         -2.5629014425       -0.3304040057       -0.1443519224
 H          2.7500537118       -0.9435779021        1.2279592328
 H          3.3817705399       -0.2165609327       -0.2498674896
 H          2.9798084249       -1.9337919373       -0.2131977567
 H          0.5726642934       -1.3811858126        0.0801625294
 H          1.2092443716       -0.6634342466       -1.3967903959
 H          1.4936793470        1.5105327504       -0.2321433823
 H          0.8850669315        0.7970631835        1.2634424956
 H         -0.7189414414        1.0084389858       -1.3472342624
 H         -0.8666360829        2.0861153874        0.0498950319
 H         -1.4111784666       -0.0120945768        1.4646283638
  16
        -19.85320346
 C          2.7154241830       -1.1453878112       -0.0099939784
 C          1.8513095143        0.1082068994        0.0554858379
 C          0.3641949184       -0.2304912266       -0.0083605598
 C         -0.5102324590        1.0183440405        0.0573810920
 C         -1.9693018684        0.7231167708       -0.0004256857
 O         -2.4696685677       -0.3723289378       -0.0876875499
 H          2.4873031621       -1.8090287650        0.8209347951
 H          3.7700999223       -0.8860468930        0.0361194445
 H          2.5337281729       -1.6852453182       -0.9365133900
 H          2.1083140645        0.7679194628       -0.7758633703
 H          2.0611886551        0.6435145176        0.9838369681
 H          0.1005639199       -0.8935757538        0.8183553468
 H          0.1474450269       -0.7685456073       -0.9336502540
 H         -0.2801425819        1.6984697337       -0.7671670404
 H         -0.3250814949        1.5747190221        0.9802348104
 H         -2.6125755853        1.6222109506        0.0444607863
  16
        -19.85293939
 C          2.4100602076       -1.1731868573        0.2463419182
 C          1.2257280558       -0.4928820762       -0.4294934134
 C          0.6284763811        0.6026655233        0.4524019083
 C         -0.5479672207        1.3057507385       -0.2214548495
 C         -1.7886067066        0.4813543195       -0.2898700500
 O         -1.9569137669       -0.6037672547        0.2113871954
 H          3.1934320288       -0.4497869525        0.4612855115
 H          2.8225621822       -1.9475592106       -0.3954931333
 H          2.1003292604       -1.6325383677        1.1822149661
 H          0.4561508974       -1.2364376173       -0.6472123652
 H          1.5513301068       -0.0585629903       -1.3777925854
 H          1.4012787903        1.3365368659        0.6862772384
 H          0.2851704737        0.1583401868        1.3889428299
 H         -0.2910055372        1.6127284123       -1.2379465052
 H         -0.8155504619        2.2161772228        0.3224025522
 H         -2.6114843342        0.9612059305       -0.8535163128
  16
        -19.85272107
 C          1.8416367871       -1.2648252726       -0.4201341092
 C          1.5093797392       -0.1826213822        0.6013357794
 C          0.8850681131        1.0657073203       -0.0258223380
 C         -0.4805815171        0.7916643822       -0.6617146417
 C         -1.4717475043        0.3092694947        0.3400856475
 O         -2.2573267212       -0.5941728081        0.1777998530
 H          2.4600304391       -0.8595591583       -1.2175753209
 H          0.9369986047       -1.6808457044       -0.8564603828
 H          2.3853334516       -2.0763493557        0.0571804945
 H          2.4265079544        0.1122146781        1.1154797214
 H          0.8258363172       -0.5925059846        1.3493720981
 H          1.5565273794        1.4578617103       -0.7905972547
 H          0.7703189385        1.8284180840        0.7466474384
 H         -0.4088885980        0.0791465805       -1.4831154407
 H         -0.8777946241        1.7298894039       -1.0596371086
 H         -1.4570035236        0.8632443149        1.2974747022
  16
        -19.85270700
 C          3.0129436783       -0.8124317874       -0.1261896037
 C          1.9091851837        0.2302894782        0.0068561472
 C          0.5257546282       -0.4171999532        0.0189426711
 C         -0.5853234731        0.6288436077        0.1377467649
 C         -1.9332028262        0.0082526864        0.2638781338
 O         -2.9403299343        0.3941836620       -0.2801123729
 H          2.8990437325       -1.3727237436       -1.0513022141
 H          2.9781839983       -1.5132971451        0.7046200056
 H          3.9892489420       -0.3348970593       -0.1322127376
 H          1.9727381884        0.9333450948       -0.8258010898
 H          2.0529324409        0.7940815254        0.9306254562
 H          0.4597750385       -1.1132101122        0.8574889658
 H          0.3866268309       -0.9881498441       -0.9011849280
 H         -0.5760891139        1.3191791375       -0.7069920930
 H         -0.4274887830        1.2093341497        1.0522224273
 H         -1.9686113562       -0.8741167034        0.9293205938
  16
        -19.85261791
 C          2.4368513686       -1.0721484040        0.3007631697
 C          1.9153870771        0.2840067552       -0.1624224071
 C          0.4282229348        0.2663922991       -0.5133997504
 C         -0.4677043433        0.0179443734        0.6971613926
 C         -1.9192832964        0.1446549632        0.3889952994
 O         -2.3977561395        0.4064702301       -0.6885697774
 H          2.2189492909       -1.8360709532       -0.4421541752
 H          1.9847131560       -1.3668210228        1.2437824910
 H          3.5140220853       -1.0308658922        0.4423924916
 H          2.4732291631        0.5925993009       -1.0486979200
 H          2.0952089809        1.0286592911        0.6157709324
 H          0.2357516745       -0.5032686879       -1.2636410697
 H          0.1502319676        1.2249278100       -0.9573316550
 H         -0.2405470258        0.7256155267        1.4992495632
 H         -0.3113325538       -0.9824197044        1.1072256756
 H         -2.5806874437       -0.0247312209        1.2597980141
  16
        -19.85216935
 C          2.4707507861       -1.1385434171       -0.1190641454
 C          2.0096798517        0.2429509731        0.3315571315
 C          0.6690198034        0.6577234658       -0.2757515978
 C         -0.4940395594       -0.2006794702        0.2307109745
 C         -1.7913126360        0.2042343939       -0.3756079434
 O         -2.8452357282        0.2959287652        0.2085002235
 H          3.4674205787       -1.3426818329        0.2637820131
 H          2.5036105402       -1.1940983774       -1.2047131583
 H          1.8056550428       -1.9152923364        0.2487835938
 H          2.7596475011        0.9791115487        0.0358671803
 H          1.9362486923        0.2657695710        1.4204508827
 H          0.7261836548        0.5839240670       -1.3633318517
 H          0.4737640317        1.7009306007       -0.0196592222
 H         -0.5686093755       -0.1670575398        1.3186165886
 H         -0.3293482875       -1.2390089947       -0.0706328470
 H         -1.7400439238        0.4231326569       -1.4583565598
  16
        -19.85210072
 C          2.1527327305       -0.9943841952       -0.5068080735
 C          1.2641524292       -0.4849659476        0.6232347550
 C          0.6322464605        0.8769098068        0.3274414481
 C         -0.4184287941        0.8258505513       -0.7802446747
 C         -1.6809297956        0.1378376874       -0.3869494579
 O         -1.9620072790       -0.2744566879        0.7124335715
 H          2.9162394330       -0.2587769623       -0.7497133077
 H          1.5753385384       -1.2039986904       -1.4035289049
 H          2.6472293519       -1.9148302100       -0.2062900464
 H          1.8673774820       -0.3925278329        1.5288127451
 H          0.4744529248       -1.2099982330        0.8302609039
 H          1.4162573483        1.5816785733        0.0462690007
 H          0.1536213140        1.2440088720        1.2377185350
 H         -0.0308916950        0.3368369912       -1.6755738695
 H         -0.7034300707        1.8381969270       -1.0808687888
 H         -2.4062654187        0.0312891390       -1.2165653821
  16
        -19.85199282
 C          2.3736288214       -1.2327414396        0.0576024395
 C          2.0542468773        0.2439749892       -0.1474221292
 C          0.6743678841        0.6402129973        0.3793450787
 C         -0.4682135145       -0.0243414725       -0.3934165418
 C         -1.7961692271        0.5449171361       -0.0324750557
 O         -2.8133596104       -0.0868916440        0.1272743620
 H          3.3976122509       -1.4398328865       -0.2431547979
 H          1.7148809734       -1.8631360419       -0.5331404881
 H          2.2636155089       -1.5036874544        1.1051920482
 H          2.1199320089        0.4858390800       -1.2099521270
 H          2.8034438305        0.8420108621        0.3752025261
 H          0.5669915512        1.7243180766        0.3041658301
 H          0.5997251532        0.3690632162        1.4341018194
 H         -0.4859500923       -1.1038588005       -0.2448343471
 H         -0.3319585567        0.1733837274       -1.4615197668
 H         -1.8070973420        1.6453263366        0.0786228727
  16
        -19.85187618
 C          1.3212077699       -1.4053445994       -0.1726922995
 C          1.7841052670        0.0181454725        0.1127613996
 C          0.6474332669        0.9410254530        0.5536979035
 C         -0.4236066847        1.1090082574       -0.5252938166
 C         -1.5107231875        0.0882024040       -0.4658866685
 O         -1.7813067502       -0.6135061871        0.4783991946
 H          2.1723084154       -2.0421938058       -0.4016636379
 H          0.6374659825       -1.4341591192       -1.0189129510
 H          0.8016920078       -1.8175596382        0.6899204917
 H          2.2586492774        0.4305977844       -0.7807794912
 H          2.5351600573       -0.0061162100        0.9047048827
 H          1.0678302913        1.9154384954        0.8047061081
 H          0.1756231232        0.5330357502        1.4501224806
 H          0.0155556238        1.1091869192       -1.5238830157
 H         -0.9339287333        2.0697764225       -0.4047624673
 H         -2.1234910418        0.0309554517       -1.3860190795
