  18
  -22.2225017700000       4.806486648624058E-002 !
 C         -2.5082788019       -1.0511825820        0.0026280852
 C         -1.2163902179       -0.2906897409       -0.0036075258
 C         -1.1970790839        1.0963830259       -0.0019485645
 C          0.0077799973        1.7797390738        0.0006875999
 C          1.2022011704        1.0853400279        0.0017869383
 C          1.2076602210       -0.3060864885        0.0006271683
 C         -0.0059659425       -0.9754915173       -0.0021718762
 C          2.5071935816       -1.0535380329        0.0002902299
 H         -3.3539066632       -0.3814152537       -0.1291016354
 H         -2.5177773295       -1.7913838816       -0.7950873726
 H         -2.6280524840       -1.5786167995        0.9482707352
 H         -2.1271377058        1.6465367760       -0.0033914365
 H          0.0124050334        2.8601531481        0.0012743085
 H          2.1402531029        1.6216047044        0.0034215439
 H         -0.0160909258       -2.0569053929       -0.0036900962
 H          3.1025159768       -0.7761225125        0.8687098527
 H          2.3388912761       -2.1268631729        0.0201964679
 H          3.0832071111       -0.8068091629       -0.8902503036
  18
  -22.2225013400000       4.804300080399585E-002 !
 C         -2.5123770309       -1.0411545652       -0.0007294533
 C         -1.2091810375       -0.3001354647        0.0001055717
 C         -1.1968832527        1.0912042614        0.0016381038
 C          0.0009509123        1.7797111159        0.0007960220
 C          1.2024380784        1.0904434545       -0.0018965599
 C          1.2149253501       -0.2967828139       -0.0037827721
 C          0.0011581886       -0.9755751205       -0.0025611403
 C          2.5032026404       -1.0633492790        0.0043136397
 H         -3.1076808132       -0.7588676048        0.8661177866
 H         -3.0857094679       -0.7935945120       -0.8928301984
 H         -2.3494489602       -2.1152742148        0.0218233086
 H         -2.1322894542        1.6320809289        0.0029280720
 H          0.0015996855        2.8601275691        0.0014576197
 H          2.1352216277        1.6359696690       -0.0029827784
 H          0.0058638842       -2.0569963442       -0.0040280228
 H          2.6301347918       -1.5714489555        0.9596273684
 H          2.5013644652       -1.8200736589       -0.7778468589
 H          3.3504932223       -0.4004077068       -0.1490447905
  18
  -22.2225002000000       4.798507945199705E-002 !
 C         -2.5084600463       -1.0508340895        0.0036229607
 C         -1.2162484537       -0.2909695821       -0.0046682090
 C         -1.1970575710        1.0962080056       -0.0030535917
 C          0.0076568319        1.7796665558        0.0005325378
 C          1.2022026140        1.0853543665        0.0030584628
 C          1.2077772364       -0.3059664713        0.0019217558
 C         -0.0058650151       -0.9755664263       -0.0020667948
 C          2.5072379883       -1.0535651367       -0.0009897046
 H         -2.5017758991       -1.8233084122       -0.7628066766
 H         -2.6488184664       -1.5384087544        0.9677649053
 H         -3.3504990114       -0.3867622926       -0.1724619606
 H         -2.1272336538        1.6461445535       -0.0043525644
 H          0.0122221788        2.8600804221        0.0016333875
 H          2.1401755467        1.6217731636        0.0046383922
 H         -0.0156756318       -2.0569795352       -0.0034764142
 H          3.1272758028       -0.7381322099        0.8363188256
 H          2.3400285230       -2.1248294428        0.0706042558
 H          3.0571463677       -0.8476528059       -0.9182889470
  18
  -22.2225000600000       4.797797111978729E-002 !
 C         -2.5081839025       -1.0512939051        0.0026542825
 C         -1.2163780287       -0.2906686238       -0.0034509702
 C         -1.1970678949        1.0964205820       -0.0011919251
 C          0.0077860866        1.7797922383        0.0009034754
 C          1.2022301398        1.0853979412        0.0008312679
 C          1.2076724124       -0.3059910004       -0.0013263375
 C         -0.0059744317       -0.9754266671       -0.0034188030
 C          2.5070614247       -1.0536574670        0.0021494816
 H         -2.5188847943       -1.7895280432       -0.7969874945
 H         -2.6264363507       -1.5811168871        0.9470985781
 H         -3.3540019333       -0.3812245142       -0.1260218901
 H         -2.1271253036        1.6465531826       -0.0029516443
 H          0.0124215592        2.8602039015        0.0017786882
 H          2.1402685533        1.6217028873        0.0013908090
 H         -0.0160665695       -2.0568397683       -0.0054163009
 H          3.1266443363       -0.7395034606       -0.8360029515
 H          3.0573961820       -0.8462112629        0.9188174786
 H          2.3397952217       -2.1250412355       -0.0677499697
  18
  -22.2224993600000       4.794244524992872E-002 !
 C         -2.5081984392       -1.0512349541       -0.0039026069
 C         -1.2163196133       -0.2907285439        0.0032099626
 C         -1.1970943622        1.0963988402        0.0026211062
 C          0.0076834793        1.7798242155        0.0001140211
 C          1.2022230732        1.0854919502       -0.0023217789
 C          1.2077778078       -0.3058498099       -0.0022798979
 C         -0.0058970639       -0.9753737786        0.0006544885
 C          2.5070226166       -1.0538665561        0.0026246089
 H         -2.5156004180       -1.7965628875        0.7891150252
 H         -3.3534927046       -0.3823360775        0.1340691605
 H         -2.6304482054       -1.5725750494       -0.9525601693
 H         -2.1272018711        1.6464463902        0.0032955836
 H          0.0122656494        2.8602429673       -0.0004443736
 H          2.1401760672        1.6219347767       -0.0039400215
 H         -0.0158256510       -2.0567697346        0.0008495887
 H          3.0378595603       -0.8772936796        0.9372415420
 H          2.3413795457       -2.1223590296       -0.1050422474
 H          3.1442829542       -0.7127846554       -0.8111625410
  18
  -22.2224971400000       4.782995140145405E-002 !
 C         -2.5092367994       -1.0496078685       -0.0068974123
 C         -1.2158414915       -0.2918479197        0.0061609445
 C         -1.1970107914        1.0956231027        0.0039924248
 C          0.0072825401        1.7793871793       -0.0004540277
 C          1.2021792249        1.0853260861       -0.0032143556
 C          1.2081301967       -0.3058259084       -0.0018828995
 C         -0.0054856335       -0.9759515388        0.0030283868
 C          2.5075953077       -1.0534208466        0.0019566978
 H         -2.4707583040       -1.8859724604        0.6876564826
 H         -3.3403434164       -0.4033122061        0.2628054590
 H         -2.6953433395       -1.4501453910       -1.0031602358
 H         -2.1275303159        1.6449649414        0.0067229427
 H          0.0116265442        2.8597856005       -0.0019175120
 H          2.1399279396        1.6220844329       -0.0055155910
 H         -0.0144433677       -2.0573559732        0.0043802104
 H          3.1376600840       -0.7225555670       -0.8217275732
 H          3.0463007757       -0.8646440019        0.9296353542
 H          2.3413524805       -2.1232395613       -0.0909310060
  18
  -22.2224970300000       4.782438425050893E-002 !
 C         -2.5075586102       -1.0519742739       -0.0003500659
 C         -1.2162866003       -0.2903756615       -0.0009404513
 C         -1.1971074008        1.0967189828       -0.0021852496
 C          0.0076706545        1.7801439480       -0.0003419507
 C          1.2022594323        1.0858548101        0.0029633060
 C          1.2078519400       -0.3054128032        0.0047194002
 C         -0.0058415808       -0.9749462004        0.0026389087
 C          2.5062878339       -1.0546608368       -0.0040289374
 H         -3.3575535346       -0.3756567592       -0.0332144560
 H         -2.5551737005       -1.7163024975       -0.8615776645
 H         -2.5833985394       -1.6642959984        0.8969417518
 H         -2.1271578218        1.6468693362       -0.0035455366
 H          0.0122495085        2.8605731101       -0.0011310974
 H          2.1400652107        1.6225211140        0.0039926760
 H         -0.0157456819       -2.0563434574        0.0033950948
 H          2.3454797476       -2.1137353643        0.1786545761
 H          2.9962142474       -0.9411917234       -0.9705599889
 H          3.1774840037       -0.6626763648        0.7575527401
  18
  -22.2224969300000       4.781932376653231E-002 !
 C         -2.5128716361       -1.0409082749        0.0007145357
 C         -1.2095353980       -0.3000289465       -0.0012396653
 C         -1.1968385684        1.0911216923        0.0018327131
 C          0.0013629469        1.7793648657        0.0012642424
 C          1.2023581054        1.0897508037       -0.0025516385
 C          1.2144707135       -0.2977550546       -0.0060397516
 C          0.0007691189       -0.9760076318       -0.0050396416
 C          2.5041343065       -1.0619433367        0.0065930622
 H         -2.3504623761       -2.1143924263       -0.0448669562
 H         -3.0748364395       -0.8112455529        0.9048944426
 H         -3.1191044480       -0.7414361192       -0.8526363098
 H         -2.1320406251        1.6323554003        0.0037108893
 H          0.0022636810        2.8597806098        0.0029369208
 H          2.1355207827        1.6345946167       -0.0039409469
 H          0.0045670384       -2.0574577373       -0.0081300790
 H          3.3389848281       -0.4186860034       -0.2589486499
 H          2.6862860211       -1.4674692781        1.0016173075
 H          2.4629494026       -1.8953830655       -0.6914175461
  18
  -22.2224966900000       4.780718078981170E-002 !
 C         -2.5128030480       -1.0409738979        0.0014195616
 C         -1.2095953167       -0.2999557102       -0.0019990125
 C         -1.1968396321        1.0911533970        0.0016005192
 C          0.0014279521        1.7793508989        0.0014367944
 C          1.2023632848        1.0896911448       -0.0024550597
 C          1.2144011563       -0.2978484201       -0.0062619179
 C          0.0007051942       -0.9760195238       -0.0056295391
 C          2.5041313477       -1.0618231727        0.0068781807
 H         -2.3512970723       -2.1127837480       -0.0752573675
 H         -3.0588151737       -0.8361786625        0.9212911946
 H         -3.1337742189       -0.7187343854       -0.8326064125
 H         -2.1319875822        1.6324692937        0.0035420520
 H          0.0023663623        2.8597743326        0.0026491855
 H          2.1355691601        1.6344500899       -0.0037740255
 H          0.0043697437       -2.0574629565       -0.0090873875
 H          2.4607075197       -1.8998038316       -0.6854063820
 H          3.3379735598       -0.4202131063       -0.2655902098
 H          2.6897144534       -1.4606253943        1.0039447185
  18
  -22.2224951000000       4.772681141446529E-002 !
 C         -2.5111904828       -1.0427706322        0.0043635208
 C         -1.2095819273       -0.2991147354       -0.0055736590
 C         -1.1969536067        1.0919500176       -0.0038237686
 C          0.0012713288        1.7801983564        0.0006205088
 C          1.2024707614        1.0907230225        0.0037868814
 C          1.2146215604       -0.2965909567        0.0027803123
 C          0.0008280056       -0.9748931449       -0.0019179641
 C          2.5024077557       -1.0640767561       -0.0018367646
 H         -2.9779173788       -0.9634241367        0.9857873583
 H         -3.1979324841       -0.6205500596       -0.7263495898
 H         -2.3594055704       -2.0951973777       -0.2198663991
 H         -2.1319373119        1.6335463952       -0.0060626289
 H          0.0020965647        2.8606194275        0.0010609357
 H          2.1353606979        1.6360424834        0.0068906366
 H          0.0049390179       -2.0563163195       -0.0038118814
 H          2.6096162211       -1.6113141470       -0.9375501915
 H          3.3527723246       -0.3964597221        0.1082613243
 H          2.5162521032       -1.7881051438        0.8107173369
  18
  -22.2224945100000       4.769702319766476E-002 !
 C         -2.5073933228       -1.0520364853        0.0007353252
 C         -1.2160493933       -0.2905375601       -0.0021128019
 C         -1.1970248998        1.0967273650       -0.0030891848
 C          0.0075474804        1.7802200190       -0.0005365485
 C          1.2022546596        1.0861654020        0.0040536506
 C          1.2080582976       -0.3048795811        0.0058939847
 C         -0.0056231930       -0.9747594460        0.0023817939
 C          2.5057697488       -1.0552496513       -0.0050324640
 H         -2.5365417710       -1.7521418469       -0.8322926471
 H         -2.6033890771       -1.6257784919        0.9215184683
 H         -3.3560635182       -0.3778961925       -0.0781343542
 H         -2.1271943045        1.6467474584       -0.0058246721
 H          0.0120989708        2.8605854178       -0.0009109079
 H          2.1398470767        1.6232889238        0.0066280551
 H         -0.0150228082       -2.0561550616        0.0050607180
 H          2.3504746615       -2.1037323005        0.2346875809
 H          2.9638759631       -0.9919502411       -0.9916699254
 H          3.2012358628       -0.6268060937        0.7136050380
  18
  -22.2224934200000       4.764203962275623E-002 !
 C         -2.5102943024       -1.0441200720       -0.0071805159
 C         -1.2099622971       -0.2982901614        0.0064512382
 C         -1.1970282398        1.0925915868        0.0037247039
 C          0.0015408911        1.7806156852       -0.0005133876
 C          1.2025609129        1.0909299276       -0.0028870534
 C          1.2144156365       -0.2964748654       -0.0010081947
 C          0.0005424150       -0.9743655534        0.0037742026
 C          2.5018251073       -1.0646246311        0.0010954017
 H         -2.9326416422       -1.0352703233       -1.0118250576
 H         -2.3682618146       -2.0784147089        0.2946161520
 H         -3.2286115817       -0.5748472867        0.6613949663
 H         -2.1316158927        1.6347414927        0.0059075804
 H          0.0025246405        2.8610195988       -0.0017321658
 H          2.1355324425        1.6360141009       -0.0056222535
 H          0.0041594066       -2.0557896053        0.0062496386
 H          2.5852182123       -1.6567143061        0.9114048154
 H          2.5362288841       -1.7484044150       -0.8453983772
 H          3.3545678676       -0.3934638963       -0.0561820873
  18
  -22.2224932200000       4.763195777759748E-002 !
 C         -2.5091830887       -1.0493282163        0.0058773686
 C         -1.2153704874       -0.2922976944       -0.0072204169
 C         -1.1970010907        1.0954455358       -0.0057209386
 C          0.0068596407        1.7795163000        0.0004931091
 C          1.2022155531        1.0858449136        0.0057821067
 C          1.2086425530       -0.3049753554        0.0053435301
 C         -0.0050006028       -0.9757379390       -0.0014132584
 C          2.5069455965       -1.0544451152       -0.0042014519
 H         -2.7134844004       -1.4178247901        1.0109798325
 H         -3.3349200809       -0.4114500217       -0.2983063122
 H         -2.4591699238       -1.9071236263       -0.6610461267
 H         -2.1278046813        1.6442623889       -0.0094989632
 H          0.0109769156        2.8598905616        0.0010508129
 H          2.1395349499        1.6233574418        0.0095379445
 H         -0.0129778843       -2.0571885884       -0.0020549220
 H          2.3494896154       -2.1080430074        0.2104175352
 H          2.9793816639       -0.9687740450       -0.9823055286
 H          3.1915182338       -0.6415496793        0.7338562275
  18
  -22.2224922100000       4.758107704149213E-002 !
 C         -2.5090694771       -1.0496222611       -0.0075386604
 C         -1.2155904571       -0.2919967904        0.0062744608
 C         -1.1970186970        1.0955945651        0.0016633163
 C          0.0070392062        1.7795333829       -0.0014014159
 C          1.2022105349        1.0856902946        0.0000094363
 C          1.2084357405       -0.3052807350        0.0047966263
 C         -0.0052002849       -0.9757336565        0.0076386953
 C          2.5070811038       -1.0541563656       -0.0044921294
 H         -3.3394286407       -0.4049685483        0.2686836360
 H         -2.6981154883       -1.4435399167       -1.0058763065
 H         -2.4686882660       -1.8905447684        0.6812984386
 H         -2.1276808308        1.6446834215        0.0024609655
 H          0.0112356663        2.8599522324       -0.0035874438
 H          2.1397128621        1.6229164480       -0.0012048146
 H         -0.0136380970       -2.0571491930        0.0118682348
 H          2.9947844596       -0.9432046361       -0.9723770823
 H          3.1798837163       -0.6598388288        0.7544929023
 H          2.3471053897       -2.1128211353        0.1814205593
  18
  -22.2224908000000       4.751013640744473E-002 !
 C         -2.5092134562       -1.0459452960        0.0069759748
 C         -1.2108175132       -0.2968359837       -0.0083681836
 C         -1.1970581283        1.0934803416       -0.0059091183
 C          0.0023409295        1.7808522000        0.0007818907
 C          1.2025374218        1.0906584682        0.0057488306
 C          1.2135890539       -0.2971981584        0.0046319679
 C         -0.0002831163       -0.9739806451       -0.0026125616
 C          2.5016699382       -1.0641523241       -0.0034045732
 H         -3.2656941034       -0.5174092897       -0.5682505940
 H         -2.3852168667       -2.0453361190       -0.4020914598
 H         -2.8702039266       -1.1398830561        1.0312065658
 H         -2.1309517969        1.6369589984       -0.0102243594
 H          0.0037795277        2.8612830940        0.0017195465
 H          2.1360359615        1.6349339400        0.0096738821
 H          0.0015897615       -2.0554095131       -0.0044596814
 H          2.4879275106       -1.8411614884        0.7582651954
 H          2.6431285026       -1.5466719135       -0.9699192920
 H          3.3466558341       -0.4057825040        0.1797686284
  18
  -22.2224881400000       4.737659299434764E-002 !
 C         -2.5081772876       -1.0483926581        0.0070268316
 C         -1.2124774080       -0.2945899877       -0.0086016473
 C         -1.1971124598        1.0947390785       -0.0074261447
 C          0.0039127493        1.7808995749        0.0004849269
 C          1.2024914282        1.0895194979        0.0074937169
 C          1.2119495924       -0.2993210778        0.0077961781
 C         -0.0019242516       -0.9738892619       -0.0005545044
 C          2.5024928416       -1.0619954895       -0.0065416425
 H         -3.3052872303       -0.4565835448       -0.4358288371
 H         -2.4166103707       -1.9855868827       -0.5366043171
 H         -2.7888371824       -1.2803194915        1.0344772377
 H         -2.1297609728        1.6403808408       -0.0129431343
 H          0.0062860939        2.8613202941        0.0003801730
 H          2.1371488732        1.6317606896        0.0127322031
 H         -0.0035820707       -2.0553183924       -0.0009705282
 H          3.3206997905       -0.4459973961        0.3574812872
 H          2.4289579128       -1.9553251252        0.6092966932
 H          2.7372196074       -1.3738940882       -1.0241803890
  18
  -22.2224862500000       4.728193505394832E-002 !
 C         -2.5111333037       -1.0453891635       -0.0084165256
 C         -1.2131519893       -0.2956168031        0.0081507571
 C         -1.1968845865        1.0934568746        0.0073568223
 C          0.0047878586        1.7791259032        0.0001038242
 C          1.2022357649        1.0869535311       -0.0070974632
 C          1.2108065512       -0.3026780665       -0.0076756284
 C         -0.0028334083       -0.9762459144        0.0002770727
 C          2.5064540465       -1.0564843441        0.0076447723
 H         -2.8399220063       -1.1928311341       -1.0371995586
 H         -2.3999738175       -2.0227740558        0.4542981420
 H         -3.2847644624       -0.4894894978        0.5156302491
 H         -2.1293540357        1.6393338357        0.0122154629
 H          0.0076725223        2.8595585933        0.0000978720
 H          2.1379981602        1.6271237272       -0.0120795247
 H         -0.0063664093       -2.0576835302        0.0004467656
 H          2.3752417532       -2.0615523001       -0.3848714614
 H          3.2595976399       -0.5396482011       -0.5824943214
 H          2.8765230208       -1.1357513964        1.0298616238
  18
  -22.2224857100000       4.725492468208684E-002 !
 C         -2.5077448028       -1.0479487592       -0.0091563151
 C         -1.2111834023       -0.2956613368        0.0082224963
 C         -1.1971583236        1.0944034909        0.0038576212
 C          0.0025762139        1.7815441832       -0.0012147787
 C          1.2026350943        1.0912326890       -0.0023587324
 C          1.2134492966       -0.2966391286        0.0015152220
 C         -0.0005271688       -0.9730432231        0.0066783996
 C          2.5004745845       -1.0654808295       -0.0014132443
 H         -3.2907804722       -0.4797556378        0.4868542434
 H         -2.8190246818       -1.2244466333       -1.0387990250
 H         -2.4024609195       -2.0122261676        0.4816664438
 H         -2.1306785027        1.6385580090        0.0053465251
 H          0.0041448769        2.8619639843       -0.0034485839
 H          2.1361350503        1.6355173546       -0.0046965740
 H          0.0008999009       -2.0544632182        0.0108086981
 H          3.3539122969       -0.3943297856        0.0443623835
 H          2.5398343814       -1.7411954122        0.8512470698
 H          2.5779716896       -1.6663139263       -0.9063949205
  18
  -22.2224844600000       4.719245985673051E-002 !
 C         -2.5084279272       -1.0478140634       -0.0097432567
 C         -1.2121609861       -0.2950838747        0.0083704776
 C         -1.1971036375        1.0944247121        0.0015073043
 C          0.0035867394        1.7808378769       -0.0022098444
 C          1.2025249716        1.0897398554        0.0008419887
 C          1.2123341090       -0.2988673248        0.0077208003
 C         -0.0015835513       -0.9739006998        0.0109307859
 C          2.5023413900       -1.0623959623       -0.0075603773
 H         -2.4107916972       -1.9989111184        0.5078008616
 H         -3.2992496054       -0.4673295792        0.4587681530
 H         -2.8030450806       -1.2519797050       -1.0391686906
 H         -2.1300565246        1.6396051588        0.0013084323
 H          0.0057500319        2.8612540391       -0.0049318627
 H          2.1369364933        1.6324095197        0.0008289094
 H         -0.0025138082       -2.0552627726        0.0177742351
 H          2.4404642560       -1.9353351756        0.6382543734
 H          2.7168605377       -1.4077172800       -1.0188182317
 H          3.3276388662       -0.4359487484        0.3207162265
  18
  -22.2224816400000       4.705184230465189E-002 !
 C         -2.5062132946       -1.0505288851       -0.0087194617
 C         -1.2121824526       -0.2937743432        0.0075949105
 C         -1.1972601736        1.0956561743        0.0024972193
 C          0.0034480134        1.7820829005       -0.0015077244
 C          1.2026657259        1.0911386445       -0.0007967427
 C          1.2126199477       -0.2971935214        0.0039267523
 C         -0.0014410093       -0.9722939184        0.0079097162
 C          2.4999757766       -1.0654958092       -0.0038332364
 H         -2.7453641960       -1.3533532022       -1.0280855685
 H         -2.4350822431       -1.9488232399        0.6000139445
 H         -3.3205266179       -0.4335186915        0.3622415291
 H         -2.1299700461        1.6412640927        0.0037411965
 H          0.0055553200        2.8625045941       -0.0031668238
 H          2.1366651314        1.6345818647       -0.0021825094
 H         -0.0019627305       -2.0537331306        0.0131907778
 H          3.3490383621       -0.4018327419        0.1362082001
 H          2.5024888454       -1.8126285363        0.7874370731
 H          2.6199430439       -1.5852629775       -0.9536618161
  18
  -22.2224757400000       4.675899632655778E-002 !
 C         -2.5166226362       -1.0384496296        0.0001565070
 C         -1.2122244681       -0.2995166738       -0.0013360339
 C         -1.1965349284        1.0902721590       -0.0016744485
 C          0.0042321958        1.7766195292       -0.0000759302
 C          1.2018836915        1.0845882714        0.0022451388
 C          1.2109994448       -0.3051240965        0.0031923841
 C         -0.0022626389       -0.9796707184        0.0011611842
 C          2.5113275290       -1.0511424834       -0.0024128863
 H         -2.3559107008       -2.1122002292       -0.0447531372
 H         -3.0787923831       -0.8076023293        0.9038747238
 H         -3.1218607128       -0.7385547637       -0.8536823565
 H         -2.1302825708        1.6339790656       -0.0032018619
 H          0.0068100745        2.8570584920       -0.0002291969
 H          2.1380786706        1.6240503607        0.0037330631
 H         -0.0046686053       -2.0611873701        0.0018241738
 H          2.3486797873       -2.1180139158        0.1247840053
 H          3.0316443486       -0.8898457335       -0.9457679958
 H          3.1567907747       -0.6953148317        0.7984529552
