  8
    -0.000001 !GC
 C          0.0000000000        0.0000000000        0.0000000000
 C          1.5037262201        0.0000000000        0.0000000000
 Cl         2.1505493116        1.6663048222        0.0000000000
 Cl         2.1505491070       -0.8291834495        1.4445498602
 Cl         2.1531782395       -0.8338838840       -1.4400711628
 H         -0.3624044320        0.5099026982       -0.8891907247
 H         -0.3629546989       -1.0245062073        0.0040332392
 H         -0.3617270464        0.5160845760        0.8855406179
  8
    -0.000001 !GC
 C          0.0000000000        0.0000000000        0.0000000000
 C          1.5040218263        0.0000000000        0.0000000000
 Cl         2.1525131757        1.6655200761        0.0000000000
 Cl         2.1539105379       -0.8287974552        1.4433274087
 Cl         2.1570986653       -0.8332684082       -1.4386088188
 H         -0.3632119386       -1.0249021827        0.0025140263
 H         -0.3620090810        0.5148022741        0.8858352447
 H         -0.3622743421        0.5102384298       -0.8891096106
