  10
    -1.056534 !GC
 C          0.0000000000        0.0000000000        0.0000000000
 N          1.4514355881        0.0000000000        0.0000000000
 C          1.9598471056        1.3460560001        0.0000000000
 H         -0.3455961496        0.4567137829        0.9277349072
 H         -0.3605107234       -1.0245966284       -0.0447226983
 H         -0.4290958561        0.5694972101       -0.8388794952
 H          1.7839001600       -0.4642605815       -0.8428907417
 H          2.6207148239        1.4644744616        0.8530475256
 H          1.1395282006        2.0747001915        0.0826222838
 H          2.5178879873        1.5399384957       -0.9257703640
  10
    -1.045931 !GC
 C          0.0000000000        0.0000000000        0.0000000000
 N          1.4389145265        0.0000000000        0.0000000000
 C          1.9506406195        1.3580616491        0.0000000000
 H         -0.3677395737        1.0359076709        0.0454142859
 H         -0.3541592175       -0.5470538290        0.8653489778
 H         -0.3934396635       -0.4647677430       -0.9166297835
 H          1.7576032004       -0.5256195702       -0.8117356170
 H          3.0376951589        1.3252355008       -0.0165884217
 H          1.6254555516        1.8573613942        0.9119477125
 H          1.6025634349        1.9478970000       -0.8619774357
  10
    -1.005097 !GC
 C          0.0000000000        0.0000000000        0.0000000000
 N          1.4389337037        0.0000000000        0.0000000000
 C          1.9501925792        1.3581728998        0.0000000000
 H         -0.2858045048       -0.5855674764        0.8701309430
 H         -0.3464968705       -0.5045545622       -0.8970195286
 H         -0.4814623714        1.0000869921        0.0586516449
 H          1.7575874627       -0.5260925836       -0.8113361384
 H          3.0374524761        1.3255539923       -0.0161750193
 H          1.6244696574        1.8571050457        0.9121528683
 H          1.6019626655        1.9475094231       -0.8625484508
  10
    -1.000111 !GC
 C          0.0000000000        0.0000000000        0.0000000000
 N          1.4512221157        0.0000000000        0.0000000000
 C          1.9594215432        1.3459623909        0.0000000000
 H         -0.3455629564        0.4597808995        0.9263183985
 H         -0.3598669339       -1.0249184606       -0.0411784913
 H         -0.4293389002        0.5658759916       -0.8411119828
 H          1.7845894753       -0.4654115732       -0.8418866318
 H          2.5297276514        1.5069652498       -0.9066456298
 H          2.6231306501        1.4185180903        0.8607218029
 H          1.1786782322        2.1316467569        0.0922864583
  10
    -0.988817 !GC
 C          0.0000000000        0.0000000000        0.0000000000
 N          1.4512713204        0.0000000000        0.0000000000
 C          1.9588328119        1.3461955350        0.0000000000
 H         -0.4347381432        0.5481852107        0.8506129249
 H         -0.3598966815       -1.0255665320        0.0166544970
 H         -0.3401690642        0.4792048204       -0.9180432292
 H          1.7845217428       -0.5273191251        0.8047408211
 H          2.5490622625        1.5863649004        0.8923596167
 H          1.0868140358        1.9981902703       -0.0335788279
 H          2.5655245605        1.5212812455       -0.8983318192
  10
    -0.400577 !GC
 C          0.0000000000        0.0000000000        0.0000000000
 N          1.4506886872        0.0000000000        0.0000000000
 C          2.0009930950        1.3423967976        0.0000000000
 H         -0.3397396802       -1.0380532668       -0.0282988054
 H         -0.4431215210        0.5290470982       -0.8544210048
 H         -0.3552647245        0.4441592198        0.9267995427
 H          1.7832588847       -0.4957195431       -0.8216939628
 H          1.7132536159        1.8523836907        0.9135707369
 H          1.6686019713        1.9426257972       -0.8642987419
 H          3.0873919368        1.2720311225       -0.0510655640
  10
    -0.395452 !GC
 C          0.0000000000        0.0000000000        0.0000000000
 N          1.4505512928        0.0000000000        0.0000000000
 C          2.0003902069        1.3423901119        0.0000000000
 H         -0.4356672090        0.5501823313       -0.8485627925
 H         -0.3464140916        0.4664190638        0.9224143381
 H         -0.3548876160       -1.0277390073       -0.0261700237
 H          1.7833764721       -0.4960716810       -0.8214994358
 H          1.6654775528        1.8712733934       -0.8864215202
 H          3.0662072862        1.1848741253       -0.0629445196
 H          1.8020472250        1.9810034490        0.8913705868
  10
    -0.388409 !GC
 C          0.0000000000        0.0000000000        0.0000000000
 N          1.4506281277        0.0000000000        0.0000000000
 C          1.9998503690        1.3429073868        0.0000000000
 H         -0.4275897888       -1.0138875147       -0.0834220995
 H         -0.2666645386        0.5489966079       -0.8871463440
 H         -0.4437436883        0.4813995678        0.8822603075
 H          1.7826792611       -0.4946768637       -0.8226740607
 H          1.7243170283        1.9364864236        0.8827631630
 H          1.5917152801        1.7970033823       -0.8867756370
 H          3.0998260397        1.3554217164       -0.0851715549
  10
    -0.385421 !GC
 C          0.0000000000        0.0000000000        0.0000000000
 N          1.4504880837        0.0000000000        0.0000000000
 C          2.0008060241        1.3421685780        0.0000000000
 H         -0.3385545916        0.5915615534       -0.8538317381
 H         -0.2738913413        0.5211910049        0.8984753116
 H         -0.5242248198       -0.9795806954       -0.0444798363
 H          1.7835462008       -0.4965672977       -0.8211004295
 H          1.6679184140        1.8710812604       -0.8873280395
 H          3.0664905595        1.1835833131       -0.0609024106
 H          1.8019349457        1.9812474123        0.8909275480
  10
    -0.380915 !GC
 C          0.0000000000        0.0000000000        0.0000000000
 N          1.4506532346        0.0000000000        0.0000000000
 C          2.0012386752        1.3421071410        0.0000000000
 H         -0.4357671027       -1.0091625119       -0.0605938751
 H         -0.2737843499        0.5658622913       -0.8712831314
 H         -0.4289872867        0.4881293152        0.8916833945
 H          1.7833239702       -0.4957308842       -0.8218695809
 H          1.6399034803        1.7778491170        0.9158210070
 H          1.5909319336        1.8934740777       -0.8427759259
 H          3.1104269567        1.4455546191       -0.0280413752
  10
    -0.362455 !GC
 C          0.0000000000        0.0000000000        0.0000000000
 N          1.4512879742        0.0000000000        0.0000000000
 C          1.9592782053        1.3460278742        0.0000000000
 H         -0.3531026457       -1.0288864020        0.0216594260
 H         -0.3523658074        0.4763810208       -0.9146941418
 H         -0.4288309689        0.5382010976        0.8596717866
 H          1.7845060144       -0.5273182665        0.8046491161
 H          1.1184275598        2.0311993360       -0.0465590207
 H          2.5584910282        1.4513387437       -0.9007223180
 H          2.5825869210        1.6017051847        0.8842200138
  10
    -0.270819 !GC
 C          0.0000000000        0.0000000000        0.0000000000
 N          1.4512988245        0.0000000000        0.0000000000
 C          1.9597551753        1.3459708226        0.0000000000
 H         -0.3454026135        0.4718136685       -0.9203179142
 H         -0.4408359533        0.5387901927        0.8522652856
 H         -0.3481202298       -1.0305150072        0.0110941562
 H          1.7844147894       -0.5277514141        0.8044011413
 H          2.5498422155        1.5854314714        0.8926240686
 H          1.0884021147        1.9989161064       -0.0336426939
 H          2.5669613929        1.5205251436       -0.8981314102
  10
    -0.220818 !GC
 C          0.0000000000        0.0000000000        0.0000000000
 N          1.4389392549        0.0000000000        0.0000000000
 C          1.9499060889        1.3584008797        0.0000000000
 H         -0.2782292279       -0.4898753190       -0.9325672904
 H         -0.4348460685        1.0066032943        0.0153693813
 H         -0.4004517312       -0.5830246784        0.8397068435
 H          1.7576322048       -0.5260065853       -0.8112628306
 H          1.6358114034        1.8614757185        0.9089337998
 H          1.6179691451        1.9473448494       -0.8714949425
 H          3.0385655713        1.3118985335       -0.0274540783
  10
    -0.213267 !GC
 C          0.0000000000        0.0000000000        0.0000000000
 N          1.4513621597        0.0000000000        0.0000000000
 C          1.9584555013        1.3466663883        0.0000000000
 H         -0.4342697264        0.5599659460       -0.8431166337
 H         -0.3529350576        0.4491922758        0.9279059435
 H         -0.3477523888       -1.0294011708       -0.0487773930
 H          1.7837199989       -0.4634562138       -0.8433887558
 H          1.1711404502        2.1070077212        0.0688896022
 H          2.5084133793        1.4713173637       -0.9290749141
 H          2.6536773730        1.4803496988        0.8425370792
  10
    -0.212311 !GC
 C          0.0000000000        0.0000000000        0.0000000000
 N          1.4512253960        0.0000000000        0.0000000000
 C          1.9586268537        1.3464653850        0.0000000000
 H         -0.3531315989       -1.0282106414       -0.0385384152
 H         -0.4402678104        0.5631377650       -0.8367119356
 H         -0.3404859161        0.4481786861        0.9335569689
 H          1.7837813987       -0.4638632597       -0.8431128638
 H          1.1710554238        2.1064014919        0.0680270064
 H          2.5084406123        1.4709751906       -0.9292529212
 H          2.6536042556        1.4803093137        0.8428005700
  10
    -0.208347 !GC
 C          0.0000000000        0.0000000000        0.0000000000
 N          1.4389445539        0.0000000000        0.0000000000
 C          1.9506733120        1.3581148445        0.0000000000
 H         -0.2777995112       -0.4898671015       -0.9325732494
 H         -0.4347673303        1.0065693988        0.0146132238
 H         -0.4009257157       -0.5832655362        0.8395733910
 H          1.7574957931       -0.5256879129       -0.8116324667
 H          1.6192876964        1.9541516075       -0.8614497900
 H          3.0417562450        1.3158415822       -0.0096700038
 H          1.6383100960        1.8473987030        0.9197632002
  10
    -0.064879 !GC
 C          0.0000000000        0.0000000000        0.0000000000
 N          1.4513606457        0.0000000000        0.0000000000
 C          1.9589501821        1.3462971441        0.0000000000
 H         -0.4347209188        0.5597589742       -0.8429480314
 H         -0.3522488576        0.4491413307        0.9280274906
 H         -0.3478132690       -1.0293250466       -0.0482818745
 H          1.7840984766       -0.4641956964       -0.8428043216
 H          2.6201059609        1.4651198255        0.8528888320
 H          1.1381914786        2.0746129755        0.0818924998
 H          2.5167673738        1.5395267355       -0.9258773523
  10
    -0.063092 !GC
 C          0.0000000000        0.0000000000        0.0000000000
 N          1.4389559088        0.0000000000        0.0000000000
 C          1.9496342166        1.3584357817        0.0000000000
 H         -0.2856024742       -0.5862962585        0.8695935120
 H         -0.3465282682       -0.5042259752       -0.8969157298
 H         -0.4821139455        0.9996288880        0.0585889063
 H          1.7576391422       -0.5262575921       -0.8112922781
 H          1.6179425687        1.9545086767       -0.8614231945
 H          3.0407539932        1.3166604566       -0.0093820949
 H          1.6366477860        1.8472293593        0.9197630861
  10
    -0.059068 !GC
 C          0.0000000000        0.0000000000        0.0000000000
 N          1.4512687970        0.0000000000        0.0000000000
 C          1.9597223065        1.3459176790        0.0000000000
 H         -0.4341656157        0.5457118476        0.8521617555
 H         -0.3600343908       -1.0257409906        0.0148980688
 H         -0.3404618053        0.4815260992       -0.9168598620
 H          1.7845229264       -0.5278717470        0.8043788162
 H          1.1193175758        2.0313596285       -0.0461319048
 H          2.5588632536        1.4514852161       -0.9005421572
 H          2.5834158810        1.6016392804        0.8836485782
  10
    -0.056359 !GC
 C          0.0000000000        0.0000000000        0.0000000000
 N          1.4513061421        0.0000000000        0.0000000000
 C          1.9593878975        1.3460537443        0.0000000000
 H         -0.3537811362       -1.0280041091       -0.0383038898
 H         -0.4405120597        0.5631102381       -0.8365590797
 H         -0.3398187736        0.4485066263        0.9336454983
 H          1.7839441297       -0.4645058186       -0.8428109564
 H          2.5278414424        1.5076572834       -0.9076425534
 H          2.6248968799        1.4185076683        0.8594690268
 H          1.1784036128        2.1312153757        0.0941785626
  10
    -0.053105 !GC
 C          0.0000000000        0.0000000000        0.0000000000
 N          1.4506017590        0.0000000000        0.0000000000
 C          2.0017257847        1.3418431022        0.0000000000
 H         -0.2577646558       -1.0462237893       -0.0599935510
 H         -0.3625016311        0.5066045900       -0.8884524603
 H         -0.5173454098        0.4286725257        0.8889950342
 H          1.7837426253       -0.4966420581       -0.8209954965
 H          3.0873881981        1.2799648265       -0.0262703199
 H          1.7012469223        1.8397785457        0.9218095353
 H          1.6584335002        1.9539564586       -0.8483803962
  10
    -0.052566 !GC
 C          0.0000000000        0.0000000000        0.0000000000
 N          1.4504697897        0.0000000000        0.0000000000
 C          2.0008434293        1.3420733305        0.0000000000
 H         -0.3470261949        0.4687751306        0.9210745207
 H         -0.3541691178       -1.0280224465       -0.0239592409
 H         -0.4365494037        0.5465658900       -0.8501374203
 H          1.7839029754       -0.4969100938       -0.8207239627
 H          1.6680394579        1.8705980030       -0.8875030987
 H          3.0665054523        1.1835513116       -0.0605905797
 H          1.8013657681        1.9812066811        0.8907371915
  10
    -0.049580 !GC
 C          0.0000000000        0.0000000000        0.0000000000
 N          1.4513101794        0.0000000000        0.0000000000
 C          1.9587251981        1.3462893124        0.0000000000
 H         -0.3528983962       -1.0288792677        0.0207713888
 H         -0.3523964517        0.4764740046       -0.9143617849
 H         -0.4294971800        0.5380055871        0.8592911696
 H          1.7845584906       -0.5272119904        0.8047815593
 H          2.5487144786        1.5865047760        0.8925977806
 H          1.0866818508        1.9983223951       -0.0339378315
 H          2.5658264148        1.5209410802       -0.8981328536
  10
    -0.047536 !GC
 C          0.0000000000        0.0000000000        0.0000000000
 N          1.4506808649        0.0000000000        0.0000000000
 C          2.0008518273        1.3423822287        0.0000000000
 H         -0.4278021490       -1.0140091031       -0.0818300380
 H         -0.2659403859        0.5487609709       -0.8874690212
 H         -0.4436239644        0.4827519287        0.8813693544
 H          1.7833330528       -0.4958304350       -0.8215885579
 H          3.0864120292        1.2809828739       -0.0285612985
 H          1.7023294406        1.8398089533        0.9229310255
 H          1.6564382720        1.9553071400       -0.8474080591
  10
    -0.047197 !GC
 C          0.0000000000        0.0000000000        0.0000000000
 N          1.4506544963        0.0000000000        0.0000000000
 C          2.0018599064        1.3420899629        0.0000000000
 H         -0.3467760747        0.4652791801        0.9229211115
 H         -0.3544218380       -1.0280034125       -0.0274261197
 H         -0.4365716510        0.5503475594       -0.8478882175
 H          1.7830481186       -0.4956277566       -0.8217739148
 H          1.7144067302        1.8519985978        0.9136546441
 H          1.6696601950        1.9428180740       -0.8641715150
 H          3.0883796387        1.2710784119       -0.0505998927
  10
    -0.046694 !GC
 C          0.0000000000        0.0000000000        0.0000000000
 N          1.4506779631        0.0000000000        0.0000000000
 C          2.0005146099        1.3424680717        0.0000000000
 H         -0.3474883123        0.4657194410        0.9224896354
 H         -0.3548888980       -1.0277938815       -0.0282900980
 H         -0.4358319334        0.5499899346       -0.8481269509
 H          1.7833499837       -0.4961290406       -0.8214116306
 H          1.5799689539        1.8107992920       -0.8705640899
 H          3.0997350627        1.3634246272       -0.0608203952
 H          1.7121314470        1.9234140470        0.8926683587
  10
    -0.045882 !GC
 C          0.0000000000        0.0000000000        0.0000000000
 N          1.4506946170        0.0000000000        0.0000000000
 C          2.0002439803        1.3425112648        0.0000000000
 H         -0.3545448230        0.5885386416       -0.8431964778
 H         -0.2658567436        0.5001683745        0.9157832029
 H         -0.5169395605       -0.9867317551       -0.0265922391
 H          1.7833595235       -0.4963777756       -0.8214498909
 H          3.0859580014        1.2819925101       -0.0284810193
 H          1.7009202839        1.8396467229        0.9228010015
 H          1.6549682946        1.9545282546       -0.8475984957
  10
    -0.045031 !GC
 C          0.0000000000        0.0000000000        0.0000000000
 N          1.4505745072        0.0000000000        0.0000000000
 C          2.0013086025        1.3420093258        0.0000000000
 H         -0.3467452178        0.4685388655        0.9213296398
 H         -0.3545267898       -1.0279499635       -0.0243025725
 H         -0.4366043212        0.5470704668       -0.8497762593
 H          1.7840327126       -0.4969985631       -0.8205794937
 H          1.6249202548        1.7927056049        0.8996073515
 H          1.5820080775        1.8804743957       -0.8530623905
 H          3.1065888228        1.4538633780       -0.0466356622
  10
    -0.039620 !GC
 C          0.0000000000        0.0000000000        0.0000000000
 N          1.4512935255        0.0000000000        0.0000000000
 C          1.9589947621        1.3462550249        0.0000000000
 H         -0.3458316856        0.4717915451       -0.9202963793
 H         -0.4409150702        0.5381742493        0.8527072490
 H         -0.3476519623       -1.0304602142        0.0113697444
 H          1.7845491158       -0.5272854439        0.8045404532
 H          2.5752336174        1.4899878641       -0.8790335832
 H          2.5543032744        1.5414672840        0.9046362620
 H          1.1199682645        2.0580629731       -0.0195978067
  10
    -0.038674 !GC
 C          0.0000000000        0.0000000000        0.0000000000
 N          1.4513308706        0.0000000000        0.0000000000
 C          1.9593830934        1.3461085836        0.0000000000
 H         -0.3458773150        0.4569536594        0.9274832079
 H         -0.3601535738       -1.0246778943       -0.0443816176
 H         -0.4290406364        0.5689998022       -0.8392537979
 H          1.7837702067       -0.4641658976       -0.8430317711
 H          1.1716036608        2.1058445411        0.0676824643
 H          2.5091943677        1.4704754491       -0.9293360987
 H          2.6540735653        1.4797902826        0.8431395806
  10
    -0.038370 !GC
 C          0.0000000000        0.0000000000        0.0000000000
 N          1.4389680207        0.0000000000        0.0000000000
 C          1.9493170953        1.3584527636        0.0000000000
 H         -0.2785220967       -0.4903320684       -0.9321710555
 H         -0.4352227692        1.0063340499        0.0154607843
 H         -0.4001879542       -0.5828968919        0.8398048485
 H          1.7577991586       -0.5261838102       -0.8112547876
 H          3.0366490911        1.3268104941       -0.0160854733
 H          1.6229648621        1.8570947483        0.9119497464
 H          1.6003340270        1.9475574523       -0.8622226238
  10
    -0.024778 !GC
 C          0.0000000000        0.0000000000        0.0000000000
 N          1.4513036188        0.0000000000        0.0000000000
 C          1.9589643094        1.3462622247        0.0000000000
 H         -0.4342477278        0.5591095633       -0.8436328625
 H         -0.3521468064        0.4497111467        0.9278820954
 H         -0.3475561935       -1.0294568411       -0.0476947647
 H          1.7840613348       -0.4645406477       -0.8426298622
 H          2.5272846806        1.5079608846       -0.9076957587
 H          2.6246405019        1.4189347920        0.8593696871
 H          1.1781255285        2.1316675612        0.0939094664
  10
    -0.022094 !GC
 C          0.0000000000        0.0000000000        0.0000000000
 N          1.4514171679        0.0000000000        0.0000000000
 C          1.9598864792        1.3459624200        0.0000000000
 H         -0.3540096432       -1.0280780981       -0.0377067720
 H         -0.4405827975        0.5632000442       -0.8364978823
 H         -0.3399097782        0.4489602589        0.9332634624
 H          1.7842579212       -0.4646196725       -0.8425280330
 H          2.6204530233        1.4640735800        0.8532321874
 H          1.1397125916        2.0747304597        0.0823138241
 H          2.5184476753        1.5393916312       -0.9255367029
  10
    -0.020857 !GC
 C          0.0000000000        0.0000000000        0.0000000000
 N          1.4389170498        0.0000000000        0.0000000000
 C          1.9497432953        1.3583416075        0.0000000000
 H         -0.3683083219        1.0361049797        0.0424297760
 H         -0.3540224452       -0.5454902642        0.8661603937
 H         -0.3931435185       -0.4670662382       -0.9154457036
 H          1.7576020219       -0.5261766172       -0.8113741974
 H          1.6179929287        1.9546050888       -0.8611733777
 H          3.0407958939        1.3162986933       -0.0097372363
 H          1.6374751253        1.8472669708        0.9199437244
  10
    -0.018746 !GC
 C          0.0000000000        0.0000000000        0.0000000000
 N          1.4513222913        0.0000000000        0.0000000000
 C          1.9584106271        1.3463056180        0.0000000000
 H         -0.3461153016        0.4712056688       -0.9204202501
 H         -0.4412920402        0.5379491727        0.8525298509
 H         -0.3473903345       -1.0304526396        0.0115318291
 H          1.7847174072       -0.5272060676        0.8046971776
 H          1.1172507254        2.0311578837       -0.0466457750
 H          2.5577236983        1.4517574687       -0.9005008641
 H          2.5818390822        1.6021375525        0.8839138191
  10
    -0.014262 !GC
 C          0.0000000000        0.0000000000        0.0000000000
 N          1.4506798556        0.0000000000        0.0000000000
 C          2.0020592993        1.3416316364        0.0000000000
 H         -0.3394387126        0.5907902395       -0.8541824267
 H         -0.2742165327        0.5209925862        0.8984856177
 H         -0.5236602311       -0.9797933573       -0.0437020673
 H          1.7840218178       -0.4972967933       -0.8204864029
 H          1.6252032355        1.7919457561        0.8995902632
 H          1.5829597262        1.8804566430       -0.8530020494
 H          3.1074727034        1.4529559055       -0.0461428237
  10
    -0.009248 !GC
 C          0.0000000000        0.0000000000        0.0000000000
 N          1.4506997898        0.0000000000        0.0000000000
 C          2.0010021811        1.3422035886        0.0000000000
 H         -0.3541171708        0.5885654931       -0.8432178137
 H         -0.2657870579        0.5008280925        0.9153573329
 H         -0.5174193839       -0.9866975276       -0.0268561637
 H          1.7832254792       -0.4960519594       -0.8218090127
 H          1.7003343098        1.9369115075        0.8766454309
 H          1.5697153113        1.7967893344       -0.8784811091
 H          3.0961098851        1.3721644608       -0.0826484016
  10
    -0.008309 !GC
 C          0.0000000000        0.0000000000        0.0000000000
 N          1.4505968386        0.0000000000        0.0000000000
 C          2.0007702893        1.3423194417        0.0000000000
 H         -0.3388711786        0.5939595436       -0.8519129861
 H         -0.2741820707        0.5183349894        0.9000305430
 H         -0.5239434395       -0.9796511372       -0.0479971585
 H          1.7827293351       -0.4953704406       -0.8222907703
 H          1.7239016653        1.9352271270        0.8825958304
 H          1.5926550909        1.7968976562       -0.8866792668
 H          3.1009528116        1.3542101929       -0.0842117276
  10
    -0.006126 !GC
 C          0.0000000000        0.0000000000        0.0000000000
 N          1.4507394058        0.0000000000        0.0000000000
 C          2.0003495335        1.3428044407        0.0000000000
 H         -0.4278238401       -1.0139711298       -0.0828344153
 H         -0.2667331625        0.5490986137       -0.8870965794
 H         -0.4438206295        0.4818133291        0.8818561430
 H          1.7829927966       -0.4947795406       -0.8223874531
 H          1.6549399891        1.9568654210       -0.8464377002
 H          3.0857161427        1.2815367529       -0.0286730784
 H          1.7028253625        1.8401926125        0.9232521751
  10
    -0.004114 !GC
 C          0.0000000000        0.0000000000        0.0000000000
 N          1.4505480125        0.0000000000        0.0000000000
 C          2.0009524891        1.3423344987        0.0000000000
 H         -0.2651547150        0.5494815843       -0.8871234593
 H         -0.4426193279        0.4828351429        0.8819694048
 H         -0.4293257010       -1.0132450721       -0.0823721507
 H          1.7828995412       -0.4954839325       -0.8220915544
 H          1.7242001418        1.9355627903        0.8822226738
 H          1.5926789259        1.7969186626       -0.8864105449
 H          3.1011953531        1.3547839818       -0.0842238127
  10
    -0.003912 !GC
 C          0.0000000000        0.0000000000        0.0000000000
 N          1.4505695868        0.0000000000        0.0000000000
 C          2.0003527563        1.3424853379        0.0000000000
 H         -0.4275681060       -1.0139260661       -0.0824177789
 H         -0.2658717740        0.5486589019       -0.8875187022
 H         -0.4435470027        0.4823385736        0.8817739460
 H          1.7830195984       -0.4957282233       -0.8218753596
 H          1.6653565717        1.8717563481       -0.8862460953
 H          3.0661917549        1.1849063840       -0.0632564922
 H          1.8026166640        1.9810443835        0.8915599114
  10
    -0.003412 !GC
 C          0.0000000000        0.0000000000        0.0000000000
 N          1.4507081167        0.0000000000        0.0000000000
 C          2.0005487349        1.3425211165        0.0000000000
 H         -0.2580808637        0.5707319604       -0.8791693370
 H         -0.4358159126        0.5038590774        0.8765311574
 H         -0.4430890733       -1.0018153938       -0.0812650550
 H          1.7832423271       -0.4962008241       -0.8213127659
 H          1.7121779200        1.8525292185        0.9135886849
 H          1.6677672857        1.9423318122       -0.8646479766
 H          3.0871884592        1.2720229443       -0.0506273058
  10
    -0.001480 !GC
 C          0.0000000000        0.0000000000        0.0000000000
 N          1.4507105139        0.0000000000        0.0000000000
 C          2.0016901397        1.3419940527        0.0000000000
 H         -0.2580913320       -1.0458605565       -0.0630688896
 H         -0.3627874076        0.5093293856       -0.8867692464
 H         -0.5170614290        0.4255889428        0.8907349896
 H          1.7829258169       -0.4954454636       -0.8221860078
 H          1.6572142888        1.9548194533       -0.8475173248
 H          3.0870602331        1.2794915678       -0.0288329439
 H          1.7038908999        1.8396633507        0.9231047932
  10
    -0.000463 !GC
 C          0.0000000000        0.0000000000        0.0000000000
 N          1.4505447321        0.0000000000        0.0000000000
 C          2.0017394623        1.3418058764        0.0000000000
 H         -0.2572732601       -1.0464063782       -0.0590494147
 H         -0.3624014425        0.5061666334       -0.8888384068
 H         -0.5171016957        0.4292468502        0.8888802560
 H          1.7837055100       -0.4969785905       -0.8208079427
 H          1.6695101149        1.8702711033       -0.8876376141
 H          3.0671918976        1.1825450174       -0.0613344758
 H          1.8032693751        1.9818130787        0.8905081010
