  10
  -10.7566316400000       6.265772961844486E-002 !
 C         -1.2045914805       -0.2547264984        0.0160241256
 N         -0.0000576772        0.5474469218       -0.0862038837
 C          1.2045767776       -0.2546832028        0.0159971332
 H         -1.2348743311       -0.9450199720       -0.8272029703
 H         -2.0719502223        0.3995431200       -0.0366421469
 H         -1.2581870115       -0.8444037855        0.9445168295
 H         -0.0000884785        1.2415974827        0.6552523183
 H          2.0716012151        0.3998844878       -0.0356335476
 H          1.2357210825       -0.9441010316       -0.8280364310
 H          1.2587544496       -0.8448338905        0.9440968407
  10
  -10.7566316100000       6.265574052738307E-002 !
 C         -1.2047544666       -0.2546489207        0.0160256280
 N         -0.0000148926        0.5472204889       -0.0861636444
 C          1.2047680517       -0.2545929126        0.0159970126
 H         -2.0719890411        0.3996825939       -0.0362745342
 H         -1.2585794683       -0.8443206880        0.9443411602
 H         -1.2352557912       -0.9446386017       -0.8274289491
 H         -0.0000242200        1.2421722611        0.6546115712
 H          1.2352641415       -0.9445934761       -0.8274493022
 H          1.2586531569       -0.8442622017        0.9443145922
 H          2.0719762933        0.3997727828       -0.0363392904
  10
  -10.7566316000000       6.265507751113984E-002 !
 C         -1.2048009147       -0.2546159010        0.0160326682
 N         -0.0000096867        0.5471921625       -0.0861487876
 C          1.2048209634       -0.2545590164        0.0160039402
 H         -1.2351862487       -0.9447256593       -0.8273081500
 H         -2.0720912900        0.3996559903       -0.0364094032
 H         -1.2586443255       -0.8442236577        0.9443762168
 H         -0.0000524121        1.2421296112        0.6546476611
 H          1.2351904877       -0.9446335439       -0.8275378066
 H          1.2585794067       -0.8443674146        0.9441301859
 H          2.0721000893        0.3995736002       -0.0364963518
  10
  -10.7566315600000       6.265242551609031E-002 !
 C         -1.2048183058       -0.2546240661        0.0160229509
 N         -0.0000129802        0.5471773266       -0.0861576550
 C          1.2048297850       -0.2545667412        0.0159941665
 H         -2.0720852795        0.3996857649       -0.0363394145
 H         -1.2586089578       -0.8442948459        0.9443468522
 H         -1.2353170659       -0.9446645934       -0.8273783887
 H         -0.0000087301        1.2421600910        0.6545857517
 H          2.0720935830        0.3997487901       -0.0363653871
 H          1.2352648312       -0.9446261507       -0.8274092850
 H          1.2587052076       -0.8442046189        0.9443177045
  10
  -10.7566315600000       6.265242551609031E-002 !
 C         -1.2048369550       -0.2546301084        0.0160360043
 N          0.0000866747        0.5472285132       -0.0861518950
 C          1.2048481941       -0.2545284874        0.0160015752
 H         -1.2592236111       -0.8447319720        0.9439891217
 H         -1.2356796619       -0.9447378560       -0.8271981564
 H         -2.0721962703        0.3994722406       -0.0362163504
 H          0.0003053053        1.2419873673        0.6547582961
 H          2.0722545249        0.3996967070       -0.0364482779
 H          1.2348310360       -0.9442762448       -0.8275349859
 H          1.2583702885       -0.8447009481        0.9440843133
  10
  -10.7566315400000       6.265109956065985E-002 !
 C         -1.2048028381       -0.2546194394        0.0160174642
 N         -0.0000531029        0.5471868652       -0.0861637671
 C          1.2048230641       -0.2545818682        0.0159911972
 H         -1.2583790530       -0.8439205869        0.9445847931
 H         -1.2355380482       -0.9446939729       -0.8274718542
 H         -2.0719361549        0.3998428666       -0.0360423796
 H         -0.0000482857        1.2422060529        0.6545635753
 H          1.2352010603       -0.9446582700       -0.8272571669
 H          1.2590025603       -0.8445746791        0.9439951574
 H          2.0721948436        0.3995955974       -0.0364285940
  10
  -10.7566315200000       6.264977363317373E-002 !
 C         -1.2047284551       -0.2546668848        0.0160293731
 N         -0.0000161241        0.5472494162       -0.0861658742
 C          1.2047380606       -0.2546105397        0.0160007153
 H         -2.0719584853        0.3996816283       -0.0362539173
 H         -1.2585351637       -0.8443916276        0.9443344255
 H         -1.2352136552       -0.9446003907       -0.8274863566
 H         -0.0000314822        1.2421859847        0.6546262971
 H          1.2586755615       -0.8442661008        0.9443348276
 H          2.0718929120        0.3997953777       -0.0363600773
 H          1.2352799188       -0.9445700772       -0.8274777130
  10
  -10.7566315000000       6.264844773386685E-002 !
 C         -1.2045228792       -0.2547870411        0.0160571298
 N         -0.0000302466        0.5474326466       -0.0861767748
 C          1.2045192171       -0.2547340197        0.0160288992
 H         -1.2349774144       -0.9447215587       -0.8277185953
 H         -2.0715292766        0.3998827987       -0.0360296244
 H         -1.2583215531       -0.8440924790        0.9446781614
 H          0.0000673158        1.2424607548        0.6544293621
 H          1.2586377700       -0.8446052055        0.9442735109
 H          2.0716235991        0.3995962953       -0.0367454414
 H          1.2349635139       -0.9443288487       -0.8276850039
  10
  -10.7566314900000       6.264778479479517E-002 !
 C         -1.2047643358       -0.2546484613        0.0160252595
 N         -0.0000143977        0.5472173709       -0.0861635572
 C          1.2047765064       -0.2545919193        0.0159965759
 H         -1.2585809583       -0.8443246795        0.9443334036
 H         -1.2352649716       -0.9446323583       -0.8274290943
 H         -2.0719940764        0.3996880240       -0.0362626493
 H         -0.0000195151        1.2421723326        0.6546130176
 H          1.2586713253       -0.8442345664        0.9443226558
 H          2.0719802682        0.3997806222       -0.0363645975
 H          1.2352629769       -0.9446106869       -0.8274291040
  10
  -10.7566253300000       6.224074453180325E-002 !
 C         -1.2048460734       -0.2504663526        0.0483407423
 N         -0.0000236934        0.5511573711       -0.0538172242
 C          1.2048650792       -0.2504154582        0.0483127769
 H         -1.2598863513       -1.0526332740       -0.7039177912
 H         -2.0721002280        0.3964936135       -0.0626791859
 H         -1.2341131738       -0.7087180015        1.0370530791
 H         -0.0000698709        1.0390683813       -0.9447184158
 H          1.2341827285       -0.7087013132        1.0370115223
 H          2.0720933774        0.3965988682       -0.0627182588
 H          1.2599962937       -1.0526228928       -0.7039019172
  10
  -10.7566253200000       6.224008590688559E-002 !
 C         -1.2047776893       -0.2504966897        0.0483453328
 N         -0.0000209794        0.5512075466       -0.0538228925
 C          1.2047933273       -0.2504438431        0.0483171198
 H         -1.2341068983       -0.7086785789        1.0370772205
 H         -1.2598582078       -1.0526900286       -0.7038841818
 H         -2.0719775432        0.3964857363       -0.0627323361
 H         -0.0000450124        1.0390718381       -0.9447695677
 H          2.0719666382        0.3965860738       -0.0627725358
 H          1.2599852202       -1.0526625173       -0.7038791892
 H          1.2341409963       -0.7086246593        1.0370619409
  10
  -10.7566253100000       6.223942728905442E-002 !
 C         -1.2048566840       -0.2504636831        0.0483417655
 N         -0.0000124558        0.5511479003       -0.0538146542
 C          1.2048729063       -0.2504071820        0.0483130854
 H         -1.2341802329       -0.7087150684        1.0370513107
 H         -1.2599796952       -1.0526071185       -0.7039185467
 H         -2.0720958055        0.3964740610       -0.0627190990
 H         -0.0000207516        1.0390350580       -0.9447299988
 H          1.2600014028       -1.0526142847       -0.7038871633
 H          1.2341378860       -0.7086506383        1.0370257399
 H          2.0721169801        0.3965645512       -0.0627447922
  10
  -10.7566253100000       6.223942728905442E-002 !
 C         -1.2047186368       -0.2505167968        0.0483531557
 N         -0.0000188764        0.5512417754       -0.0538219929
 C          1.2047346935       -0.2504631102        0.0483248367
 H         -2.0718707855        0.3964887738       -0.0627970331
 H         -1.2340977390       -0.7087411975        1.0370816722
 H         -1.2597593119       -1.0526381439       -0.7039382610
 H         -0.0000300726        1.0390823421       -0.9447730554
 H          1.2340864896       -0.7086656215        1.0370692806
 H          2.0718791308        0.3965867248       -0.0628150801
 H          1.2598632695       -1.0526314837       -0.7039238483
  10
  -10.7566253000000       6.223876867807569E-002 !
 C         -1.2047387447       -0.2505132565        0.0483473513
 N         -0.0000301771        0.5512446716       -0.0538277153
 C          1.2047547432       -0.2504645731        0.0483196695
 H         -1.2339816094       -0.7086522170        1.0371217888
 H         -1.2598051123       -1.0527575819       -0.7038616181
 H         -2.0719200375        0.3965230890       -0.0627384682
 H         -0.0000873720        1.0390735303       -0.9447770035
 H          1.2341706915       -0.7086616940        1.0370606907
 H          2.0718993873        0.3965963701       -0.0628278132
 H          1.2599527640       -1.0527051029       -0.7038636427
  10
  -10.7566252700000       6.223679288718927E-002 !
 C         -1.2051557872       -0.2503016297        0.0483226856
 N         -0.0000731762        0.5508657847       -0.0537771378
 C          1.2051819446       -0.2502742914        0.0482977162
 H         -2.0726585288        0.3963021602       -0.0625420072
 H         -1.2341063095       -0.7089983484        1.0367434590
 H         -1.2599561840       -1.0520166558       -0.7042785935
 H         -0.0001938851        1.0389237411       -0.9445397144
 H          1.2606044374       -1.0524287570       -0.7038377876
 H          1.2345347026       -0.7086229162        1.0369401390
 H          2.0724809552        0.3967331299       -0.0625188861
  10
  -10.7566251400000       6.222823185113330E-002 !
 C         -1.2049603478       -0.2504200962        0.0483641253
 N         -0.0000287409        0.5510210585       -0.0537705783
 C          1.2049984712       -0.2503756867        0.0483369839
 H         -1.2598900547       -1.0522672902       -0.7041111644
 H         -2.0721525649        0.3964510597       -0.0637771268
 H         -1.2345156104       -0.7083667661        1.0373692466
 H         -0.0001337201        1.0389797072       -0.9445599106
 H          1.2601254564       -1.0523319430       -0.7041722541
 H          1.2344325683       -0.7089900945        1.0369880039
 H          2.0720790366        0.3968798394       -0.0628230587
  10
  -10.7519999600000       4.660171551602381E-004 !
 C         -1.2229188049       -0.2523509813        0.0160996163
 N          0.0041662517        0.5370002564       -0.0844947222
 C          1.2185698839       -0.2494702388        0.0157107730
 H         -1.8208945816       -0.0976121292       -0.8845236563
 H         -1.8271803286        0.0294279351        0.8794459409
 H         -0.9972778782       -1.3166121882        0.0949015232
 H          0.0129846654        1.2544549189        0.6311137916
 H          2.0738943499        0.4194415841       -0.0547452506
 H          1.2540166192       -0.9462650565       -0.8217690516
 H          1.2983836719       -0.8254232743        0.9506892252
