  14
  -17.2466568300000       4.035835606717149E-002 !
 C         -1.7609582420       -1.4536275164        0.1564606655
 C         -1.6406515661       -0.0098896286       -0.3218772596
 C         -2.9471509000        0.7488566720       -0.0868518002
 C         -0.5240690061        0.7214619967        0.4085858759
 Br         1.2565748473        0.0021888733       -0.0356466084
 H         -1.9995148155       -1.4832673916        1.2177025332
 H         -2.5488612355       -1.9654881751       -0.3889416099
 H         -0.8299116077       -1.9931209069       -0.0044055744
 H         -1.4174592057       -0.0080153975       -1.3944819153
 H         -2.8772018402        1.7678929140       -0.4592235482
 H         -3.1808260064        0.7817405605        0.9747416529
 H         -3.7611714407        0.2488206007       -0.6035664942
 H         -0.6186264764        0.6231399308        1.4889738972
 H         -0.4827669857        1.7737293295        0.1323546706
  14
  -17.2466568300000       4.035835606717149E-002 !
 C         -1.7610372922       -1.4536392941        0.1564523743
 C         -1.6406442986       -0.0099056824       -0.3218612359
 C         -2.9471590977        0.7488164978       -0.0868506290
 C         -0.5240543897        0.7214643962        0.4085801762
 Br         1.2565876987        0.0022009910       -0.0356460452
 H         -2.5489307113       -1.9654905090       -0.3889578676
 H         -0.8300207857       -1.9931642031       -0.0044445165
 H         -1.9996103897       -1.4832665592        1.2176969517
 H         -1.4174474217       -0.0080571902       -1.3944618756
 H         -2.8772026309        1.7678468859       -0.4592367843
 H         -3.1808413247        0.7817114186        0.9747445141
 H         -3.7611757817        0.2487797323       -0.6035786234
 H         -0.6186226878        0.6231644830        1.4889656244
 H         -0.4827277784        1.7737285561        0.1323433649
  14
  -17.2466568200000       4.035792899935375E-002 !
 C         -1.7608974760       -1.4535603834        0.1564651848
 C         -1.6406291008       -0.0098387226       -0.3219079059
 C         -2.9471587953        0.7488464256       -0.0868427298
 C         -0.5240611000        0.7214945997        0.4085939911
 Br         1.2565598968        0.0021645056       -0.0356450185
 H         -2.5487939248       -1.9654059551       -0.3889425004
 H         -0.8298519227       -1.9930536348       -0.0044592404
 H         -1.9994773712       -1.4832072250        1.2177147609
 H         -1.4174408230       -0.0079554079       -1.3945172261
 H         -3.7611707484        0.2488005841       -0.6035711299
 H         -2.8772149864        1.7678785013       -0.4592229541
 H         -3.1808198523        0.7817246991        0.9747620373
 H         -0.6185897802        0.6231392519        1.4889833433
 H         -0.4827869376        1.7737694023        0.1323870325
  14
  -17.2466568200000       4.035792899935375E-002 !
 C         -1.7612756242       -1.4536132268        0.1564299286
 C         -1.6407163632       -0.0098989630       -0.3219162850
 C         -2.9473108315        0.7486944772       -0.0868264094
 C         -0.5240647645        0.7213902442        0.4084870962
 Br         1.2566762757        0.0022299460       -0.0356216301
 H         -1.9998817570       -1.4833656156        1.2176763264
 H         -2.5491594045       -1.9654121381       -0.3890447213
 H         -0.8302613742       -1.9931153141       -0.0045134558
 H         -1.4174210079       -0.0079611075       -1.3945015315
 H         -3.1810267094        0.7816362716        0.9747461477
 H         -3.7613931820        0.2487559442       -0.6035403071
 H         -2.8773453514        1.7677108654       -0.4591686457
 H         -0.6186826019        0.6229616861        1.4888479832
 H         -0.4827995542        1.7736935638        0.1323774906
  14
  -17.2466568200000       4.035792899935375E-002 !
 C         -1.7609582438       -1.4536020568        0.1564918576
 C         -1.6406395446       -0.0098932297       -0.3219286556
 C         -2.9471426230        0.7488419068       -0.0868397765
 C         -0.5240768838        0.7214096199        0.4086156836
 Br         1.2565726837        0.0021969415       -0.0356510663
 H         -0.8299451891       -1.9931356929       -0.0044118222
 H         -1.9995480622       -1.4832647421        1.2177321002
 H         -2.5488515991       -1.9654390518       -0.3889072244
 H         -1.4174146808       -0.0080237009       -1.3945365091
 H         -3.7611799015        0.2488283787       -0.6035224878
 H         -2.8772079167        1.7678824899       -0.4591938897
 H         -3.1808700613        0.7817332408        0.9747297176
 H         -0.6186056636        0.6230881059        1.4890172712
 H         -0.4826930097        1.7736624428        0.1323421360
  14
  -17.2466568000000       4.035707487742751E-002 !
 C         -1.7609472873       -1.4536255731        0.1564282533
 C         -1.6405636140       -0.0098825221       -0.3218600919
 C         -2.9470568039        0.7488419049       -0.0868268467
 C         -0.5240582111        0.7216546563        0.4085995082
 Br         1.2565376088        0.0021567794       -0.0356497567
 H         -2.5488718033       -1.9654872302       -0.3889371938
 H         -0.8299183826       -1.9931367404       -0.0044847827
 H         -1.9994937750       -1.4832194859        1.2176746898
 H         -1.4174016551       -0.0080425401       -1.3944680037
 H         -3.1807501674        0.7817310512        0.9747571618
 H         -3.7610570799        0.2487945945       -0.6035530254
 H         -2.8771154831        1.7678744616       -0.4591973081
 H         -0.6184858252        0.6233125106        1.4889991406
 H         -0.4827218745        1.7739214303        0.1323343759
  14
  -17.2466568000000       4.035707487742751E-002 !
 C         -1.7608364019       -1.4535319168        0.1564573209
 C         -1.6406370177       -0.0097723530       -0.3218469757
 C         -2.9472133289        0.7488757006       -0.0868641544
 C         -0.5240805320        0.7215890215        0.4086238605
 Br         1.2565700880        0.0021249209       -0.0356541239
 H         -1.9993531200       -1.4831942653        1.2177191637
 H         -2.5487771718       -1.9653685601       -0.3889016806
 H         -0.8298074066       -1.9930482853       -0.0045325888
 H         -1.4174104505       -0.0078659185       -1.3944421134
 H         -3.7611956665        0.2488407399       -0.6036602669
 H         -2.8772990306        1.7679598748       -0.4591363778
 H         -3.1809442259        0.7816469860        0.9747238961
 H         -0.6189400283        0.6233975650        1.4889925836
 H         -0.4829791896        1.7738560593        0.1323603610
  14
  -17.2466567700000       4.035579372835533E-002 !
 C         -1.7607521594       -1.4535560679        0.1565089520
 C         -1.6406191287       -0.0098557916       -0.3219473985
 C         -2.9470908796        0.7489207307       -0.0868453540
 C         -0.5240756429        0.7214172306        0.4086406461
 Br         1.2565159775        0.0021663727       -0.0356534175
 H         -0.8296827337       -1.9930108830       -0.0044021708
 H         -1.9993432031       -1.4832223251        1.2177562125
 H         -2.5486158032       -1.9654010630       -0.3889291088
 H         -1.4173678571       -0.0079801162       -1.3945481512
 H         -3.1807882712        0.7817957113        0.9747468201
 H         -3.7610947651        0.2488840734       -0.6035644468
 H         -2.8771691499        1.7679580979       -0.4592171424
 H         -0.6185088725        0.6230543879        1.4890464598
 H         -0.4825804626        1.7736528013        0.1323358638
  14
  -17.2466566900000       4.035237752940680E-002 !
 C         -1.7604618715       -1.4534139438        0.1564858162
 C         -1.6403811434       -0.0096079519       -0.3217685911
 C         -2.9470586821        0.7489189887       -0.0869036142
 C         -0.5239343704        0.7218623729        0.4088145454
 Br         1.2563917059        0.0020190372       -0.0357031950
 H         -0.8292961388       -1.9927843793       -0.0043351964
 H         -1.9991567572       -1.4831120121        1.2177249894
 H         -2.5482395839       -1.9653822772       -0.3890240824
 H         -1.4171114243       -0.0076469078       -1.3943540312
 H         -2.8771288046        1.7679259094       -0.4590651752
 H         -3.1806364698        0.7820064315        0.9746671706
 H         -3.7612066016        0.2489801199       -0.6036110698
 H         -0.6182940307        0.6233263517        1.4891929977
 H         -0.4825918518        1.7741668658        0.1327418256
  14
  -17.2466524900000       4.017343263046398E-002 !
 C         -2.3164330203       -1.9221267915        0.4407139376
 C         -1.4500901169       -0.8163980832       -0.1631554635
 C         -2.2212280270        0.4983744854       -0.2291082155
 C         -0.1936242925       -0.6764641110        0.6835549606
 Br         1.1322386823        0.5278562426       -0.1391666358
 H         -3.2195837266       -2.0458146089       -0.1497870278
 H         -1.7827372061       -2.8691556721        0.4563759033
 H         -2.6018504085       -1.6669091200        1.4585913953
 H         -1.1580824148       -1.1087831987       -1.1778418673
 H         -1.6039938413        1.2878490856       -0.6528438407
 H         -2.5382449049        0.8030289145        0.7662517620
 H         -3.1034730018        0.3851604320       -0.8528435234
 H          0.3214067727       -1.6283631446        0.8014659650
 H         -0.4125987833       -0.2475975880        1.6602747159
  14
  -17.2466524800000       4.017300751963734E-002 !
 C         -2.3164666761       -1.9220938850        0.4407213598
 C         -1.4500647818       -0.8163966320       -0.1631501805
 C         -2.2212764782        0.4983274225       -0.2291209122
 C         -0.1935707340       -0.6765619866        0.6835419698
 Br         1.1322431428        0.5278753953       -0.1391647135
 H         -2.6019639700       -1.6668786605        1.4585735420
 H         -3.2196005541       -2.0457380006       -0.1497900992
 H         -1.7828391027       -2.8691705919        0.4564046646
 H         -1.1580357827       -1.1087337100       -1.1778424479
 H         -2.5382641314        0.8029657903        0.7662542646
 H         -3.1035385728        0.3851271289       -0.8528386752
 H         -1.6040356120        1.2877841064       -0.6528722901
 H          0.3213768816       -1.6285097014        0.8015304077
 H         -0.4125719798       -0.2476318756        1.6602264234
  14
  -17.2466524800000       4.017300751963734E-002 !
 C         -2.3165391850       -1.9220725909        0.4406924443
 C         -1.4500717440       -0.8164441879       -0.1632103017
 C         -2.2212523493        0.4982928490       -0.2290783059
 C         -0.1935993329       -0.6765288020        0.6834878006
 Br         1.1322572528        0.5278792167       -0.1391483601
 H         -3.2196949443       -2.0457054893       -0.1498009706
 H         -1.7829128050       -2.8691351254        0.4563176066
 H         -2.6019778977       -1.6669097502        1.4585815202
 H         -1.1580541790       -1.1087720315       -1.1779176940
 H         -3.1035041212        0.3851417708       -0.8528263744
 H         -1.6039477361        1.2877284069       -0.6527673863
 H         -2.5382499382        0.8029294328        0.7662933154
 H          0.3213286984       -1.6284784272        0.8015058547
 H         -0.4125782037       -0.2475577509        1.6601622769
  14
  -17.2466524700000       4.017258241315817E-002 !
 C         -2.3162622498       -1.9221077298        0.4407790978
 C         -1.4499067634       -0.8163496730       -0.1630477218
 C         -2.2211167348        0.4983781058       -0.2291704734
 C         -0.1935016006       -0.6765081454        0.6837096062
 Br         1.1321349713        0.5278524199       -0.1392123291
 H         -1.7825708532       -2.8691417833        0.4565111357
 H         -2.6017910276       -1.6669008577        1.4586201357
 H         -3.2193701709       -2.0458335365       -0.1497659818
 H         -1.1577239026       -1.1087469735       -1.1776697744
 H         -2.5382248369        0.8030353107        0.7661656452
 H         -3.1033084176        0.3851051291       -0.8529962674
 H         -1.6038408498        1.2878516230       -0.6528663228
 H          0.3214896164       -1.6284205953        0.8017539317
 H         -0.4126034410       -0.2475525969        1.6603520496
  14
  -17.2466524700000       4.017258241315817E-002 !
 C         -2.3164296862       -1.9221271764        0.4407173462
 C         -1.4500880250       -0.8163393234       -0.1630573625
 C         -2.2213525967        0.4983478127       -0.2291760742
 C         -0.1935111967       -0.6765966427        0.6835373324
 Br         1.1322427485        0.5278748885       -0.1391681040
 H         -2.6018779132       -1.6669521101        1.4585909732
 H         -3.2195816804       -2.0457750214       -0.1497806212
 H         -1.7827627933       -2.8691787098        0.4563441261
 H         -1.1581114166       -1.1086300739       -1.1777628915
 H         -1.6041170735        1.2878486456       -0.6528815173
 H         -2.5382895441        0.8029163273        0.7662167352
 H         -3.1036581243        0.3851733653       -0.8528746018
 H          0.3214585340       -1.6285400506        0.8014726372
 H         -0.4124677725       -0.2477239074        1.6602441034
  14
  -17.2466524600000       4.017215731117740E-002 !
 C         -2.3164419791       -1.9221212825        0.4407242266
 C         -1.4501369791       -0.8163254870       -0.1630989926
 C         -2.2213871770        0.4983913407       -0.2291468894
 C         -0.1936333770       -0.6764867714        0.6835691627
 Br         1.1322818963        0.5278451351       -0.1391736323
 H         -1.7827757118       -2.8691779622        0.4564055626
 H         -2.6019238898       -1.6669182283        1.4585814224
 H         -3.2195705916       -2.0457954106       -0.1497996111
 H         -1.1580528753       -1.1086677486       -1.1777644712
 H         -3.1036415873        0.3851999155       -0.8528871939
 H         -1.6041719376        1.2878971000       -0.6528293555
 H         -2.5383939408        0.8030312060        0.7662064680
 H          0.3213540813       -1.6284216296        0.8014829315
 H         -0.4127369324       -0.2477131374        1.6602984627
  14
  -17.2466524400000       4.017130712071101E-002 !
 C         -2.3165323367       -1.9221389656        0.4406968233
 C         -1.4500953977       -0.8163702111       -0.1630285104
 C         -2.2213459662        0.4983109516       -0.2291686731
 C         -0.1935281788       -0.6765105612        0.6835529728
 Br         1.1322662464        0.5278748543       -0.1391738749
 H         -3.2196920069       -2.0458180493       -0.1497949489
 H         -1.7828893935       -2.8692027140        0.4563558217
 H         -2.6020056367       -1.6669882607        1.4585639317
 H         -1.1580677911       -1.1086240018       -1.1777276224
 H         -2.5383246821        0.8028774253        0.7662094223
 H         -3.1036211639        0.3851272998       -0.8528918803
 H         -1.6041034860        1.2878125949       -0.6528376834
 H          0.3214589571       -1.6284451673        0.8015154332
 H         -0.4125909547       -0.2476759222        1.6602601387
  14
  -17.2466523600000       4.016790653907516E-002 !
 C         -2.3184304806       -1.9228387226        0.4395218810
 C         -1.4527814982       -0.8162476286       -0.1639681571
 C         -2.2240758124        0.4984852372       -0.2287781005
 C         -0.1943557955       -0.6772308095        0.6801380135
 Br         1.1337408463        0.5280959799       -0.1382923002
 H         -2.6026549555       -1.6686159205        1.4579402658
 H         -3.2223478682       -2.0460144449       -0.1499060975
 H         -1.7848879103       -2.8699986399        0.4537092866
 H         -1.1622069645       -1.1075030997       -1.1792782619
 H         -3.1073765434        0.3858039587       -0.8511762557
 H         -1.6075834575        1.2885077269       -0.6526429279
 H         -2.5395211495        0.8020448981        0.7673279475
 H          0.3193717594       -1.6299076160        0.7976510660
 H         -0.4125090439       -0.2493997472        1.6573782196
  14
  -17.2466523100000       4.016578132184953E-002 !
 C         -2.3143702609       -1.9222912471        0.4416513398
 C         -1.4471867053       -0.8172975829       -0.1620358264
 C         -2.2176093632        0.4978970033       -0.2298569624
 C         -0.1910160894       -0.6788419493        0.6853987692
 Br         1.1302342280        0.5284979178       -0.1397145952
 H         -1.7812846212       -2.8696924547        0.4584172171
 H         -2.5999327556       -1.6657514916        1.4590832222
 H         -3.2173691019       -2.0457108240       -0.1491976573
 H         -1.1552476294       -1.1109344333       -1.1763177487
 H         -1.5995886849        1.2866855340       -0.6537153342
 H         -2.5348132721        0.8034279626        0.7651254938
 H         -3.0997489914        0.3851043331       -0.8538800837
 H          0.3234369490       -1.6309859132        0.8050845832
 H         -0.4090857327       -0.2468932584        1.6609219538
  14
  -17.2463947600000       3.058401053377504E-002 !
 C         -1.6143344785       -1.6869420679       -0.3619325066
 C         -1.6035678353       -0.2317372493       -0.8205591910
 C         -2.2535185182        0.6769747604        0.2186078935
 C         -0.1965719880        0.2336559840       -1.1662211400
 Br         1.0310888815        0.1860506376        0.3766089063
 H         -1.0566283291       -1.7967151839        0.5660965351
 H         -2.6343152470       -2.0177485952       -0.1877252782
 H         -1.1654438105       -2.3327444408       -1.1135719514
 H         -2.1707202285       -0.1551356458       -1.7568804688
 H         -3.2791084838        0.3673247504        0.3986775387
 H         -2.2593884502        1.7105123164       -0.1209182501
 H         -1.7109211238        0.6254508762        1.1605632112
 H         -0.1873266039        1.2687668457       -1.5034169881
 H          0.2657218362       -0.4066744909       -1.9155597556
  14
  -17.2463947500000       3.058368689703884E-002 !
 C         -1.6143660765       -1.6869411276       -0.3619403287
 C         -1.6035708076       -0.2317327064       -0.8205573267
 C         -2.2535368078        0.6769583067        0.2186100719
 C         -0.1965704999        0.2336735313       -1.1662291465
 Br         1.0310977721        0.1860488983        0.3766104461
 H         -1.1654455685       -2.3327364971       -1.1135719413
 H         -1.0566797912       -1.7967004606        0.5660973396
 H         -2.6343490442       -2.0177518661       -0.1877401400
 H         -2.1707370577       -0.1551139598       -1.7568645128
 H         -1.7108966034        0.6254308517        1.1605390569
 H         -3.2791229646        0.3672925143        0.3987004157
 H         -2.2594070977        1.7104901185       -0.1209327617
 H         -0.1873157060        1.2688089512       -1.5033490701
 H          0.2657307540       -0.4066237017       -1.9155954190
  14
  -17.2463947400000       3.058336326372732E-002 !
 C         -1.6142446646       -1.6870537493       -0.3619751791
 C         -1.6034651093       -0.2318394694       -0.8205911540
 C         -2.2531448495        0.6769513764        0.2186372688
 C         -0.1964699910        0.2334897913       -1.1664003931
 Br         1.0309676165        0.1861151009        0.3766503224
 H         -2.6343027698       -2.0177845471       -0.1877279815
 H         -1.1653382993       -2.3328472063       -1.1136554641
 H         -1.0564008447       -1.7967166186        0.5660247522
 H         -2.1707717247       -0.1551385095       -1.7568125530
 H         -2.2590449576        1.7104628191       -0.1210329929
 H         -1.7103391975        0.6253920828        1.1605096180
 H         -3.2787235151        0.3672728991        0.3987893825
 H         -0.1871084089        1.2686377214       -1.5033317079
 H          0.2655500354       -0.4065445811       -1.9161063599
  14
  -17.2463947400000       3.058336326372732E-002 !
 C         -1.6143031459       -1.6868879450       -0.3619438688
 C         -1.6035730305       -0.2316884359       -0.8205588532
 C         -2.2535852566        0.6769723059        0.2186063959
 C         -0.1965636072        0.2336877596       -1.1662368725
 Br         1.0310929341        0.1860283202        0.3766156104
 H         -1.1653547698       -2.3326682971       -1.1135780924
 H         -1.0566313680       -1.7966278703        0.5661095690
 H         -2.6342967498       -2.0176876198       -0.1877789137
 H         -2.1706976364       -0.1551146392       -1.7568921836
 H         -3.2791840350        0.3672334134        0.3986483341
 H         -2.2594436034        1.7104976637       -0.1210152048
 H         -1.7109103518        0.6254584014        1.1605416975
 H         -0.1873436109        1.2688024455       -1.5034357426
 H          0.2657943566       -0.4066638698       -1.9155296556
  14
  -17.2463947300000       3.058303963384046E-002 !
 C         -1.6143118016       -1.6869835165       -0.3619439541
 C         -1.6035543886       -0.2317472576       -0.8204997089
 C         -2.2535267107        0.6770197661        0.2185886613
 C         -0.1965758737        0.2336920854       -1.1662133589
 Br         1.0310818637        0.1860450755        0.3766013086
 H         -1.0566051740       -1.7967476088        0.5660817709
 H         -2.6342931336       -2.0177825450       -0.1877277889
 H         -1.1654188079       -2.3327891944       -1.1135889494
 H         -2.1707424570       -0.1551132806       -1.7567843064
 H         -2.2593670747        1.7105722842       -0.1209160610
 H         -1.7108455553        0.6254512812        1.1604796548
 H         -3.2791091769        0.3673435322        0.3987126852
 H         -0.1872842605        1.2688378885       -1.5033265794
 H          0.2658050063       -0.4066483106       -1.9154994684
  14
  -17.2463947300000       3.058303963384046E-002 !
 C         -1.6144833140       -1.6869213662       -0.3619359641
 C         -1.6035546467       -0.2317234702       -0.8205418419
 C         -2.2536804619        0.6768957696        0.2185980678
 C         -0.1965273441        0.2335805723       -1.1662502893
 Br         1.0311388538        0.1860712596        0.3766148762
 H         -2.6344988387       -2.0176678831       -0.1877880021
 H         -1.1655927635       -2.3326993096       -1.1135986649
 H         -1.0568253272       -1.7967287199        0.5661187129
 H         -2.1706914964       -0.1551174445       -1.7568638934
 H         -3.2792895792        0.3672655301        0.3986382260
 H         -2.2595112200        1.7104260035       -0.1209379130
 H         -1.7111236923        0.6253631272        1.1605697223
 H         -0.1872681595        1.2687011372       -1.5033928003
 H          0.2657232722       -0.4067117944       -1.9156551624
  14
  -17.2463947000000       3.058206876484239E-002 !
 C         -1.6144672456       -1.6869449108       -0.3619344665
 C         -1.6036487259       -0.2317335072       -0.8205492018
 C         -2.2535995995        0.6769467136        0.2186165148
 C         -0.1966521098        0.2337146723       -1.1662001767
 Br         1.0311606157        0.1860463418        0.3766052969
 H         -2.6344479350       -2.0177951143       -0.1877247164
 H         -1.1655569430       -2.3326763843       -1.1135999368
 H         -1.0567451078       -1.7967429472        0.5660680029
 H         -2.1708832726       -0.1551040053       -1.7568146656
 H         -1.7109212901        0.6254209890        1.1605200299
 H         -3.2791512962        0.3672645182        0.3987271442
 H         -2.2595842683        1.7104365697       -0.1209131008
 H         -0.1875903246        1.2687980900       -1.5035222439
 H          0.2655302219       -0.4066005778       -1.9156379992
  14
  -17.2463946900000       3.058174514865377E-002 !
 C         -1.6143032304       -1.6869610019       -0.3619827701
 C         -1.6033288203       -0.2317109407       -0.8205622756
 C         -2.2533798410        0.6768942873        0.2186258602
 C         -0.1963668779        0.2338020436       -1.1662661472
 Br         1.0309720921        0.1860380899        0.3766164556
 H         -1.1654089742       -2.3327053258       -1.1136567068
 H         -1.0566764515       -1.7969246419        0.5660691716
 H         -2.6343011724       -2.0177674629       -0.1878716800
 H         -2.1703959172       -0.1549474217       -1.7569108353
 H         -2.2592187869        1.7104530360       -0.1208367672
 H         -1.7108444476        0.6252865846        1.1606087818
 H         -3.2789805898        0.3672304194        0.3986077667
 H         -0.1867314670        1.2690489032       -1.5030443591
 H          0.2663686422       -0.4065123612       -1.9153413259
  14
  -17.2463946700000       3.058109792666488E-002 !
 C         -1.6144275885       -1.6868981569       -0.3619653201
 C         -1.6035285313       -0.2317185193       -0.8205607336
 C         -2.2535253413        0.6768896437        0.2186298419
 C         -0.1965475534        0.2337818034       -1.1662293176
 Br         1.0310943425        0.1860315628        0.3766118949
 H         -1.0567097086       -1.7965552395        0.5660780779
 H         -2.6344415246       -2.0177033403       -0.1878144283
 H         -1.1654574970       -2.3326090692       -1.1136433601
 H         -2.1707427245       -0.1551475171       -1.7568352719
 H         -1.7108510796        0.6253607779        1.1605413834
 H         -3.2790945356        0.3671564343        0.3987137880
 H         -2.2594363657        1.7104155070       -0.1209339413
 H         -0.1872512418        1.2689389701       -1.5033170389
 H          0.2658526218       -0.4065394065       -1.9155162380
