  14
  -22.0764624900000       0.501198403363628      !
 C         -2.2369305496        0.2710320125        0.0000208515
 C         -1.7763022270       -1.0381492970       -0.0000258676
 C         -0.4189058904       -1.2934149124       -0.0000439223
 C          0.4903390965       -0.2327083369        0.0000185597
 C          0.0174144116        1.0831156510       -0.0000765351
 C         -1.3405089339        1.3306933101        0.0000369912
 C          1.9232570848       -0.4959093389        0.0000190220
 O          2.7985266939        0.3469103662        0.0000257153
 H         -3.2981370759        0.4662405844       -0.0001167877
 H         -2.4790107638       -1.8566655245        0.0005283945
 H         -0.0509721165       -2.3084242543       -0.0002249508
 H          0.7380128857        1.8874110626       -0.0002563780
 H         -1.7037506886        2.3464813051        0.0001991934
 H          2.1911644162       -1.5690710735        0.0000688770
  14
  -22.0764579600000       0.498801596636372      !
 C         -2.2515883750        0.0905880890        0.0000187723
 C         -1.5364200308       -1.0989177338       -0.0000088950
 C         -0.1563744516       -1.0719379676       -0.0000043844
 C          0.5212761431        0.1511187811        0.0000413755
 C         -0.2064293993        1.3437222192        0.0000164826
 C         -1.5872136555        1.3090941659       -0.0000050428
 C          1.9778993211        0.1816067884        0.0000277099
 O          2.7072408816       -0.7902973421        0.0000034464
 H         -3.3303721351        0.0677407716       -0.0003738020
 H         -2.0575177127       -2.0435041383       -0.0006754735
 H          0.4259685061       -1.9812867978       -0.0004932407
 H          0.3192435526        2.2867479327        0.0001267132
 H         -2.1498790439        2.2295252489        0.0002671065
 H          2.4140596521        1.1980986746        0.0000689888
