  16
        -20.17201496
 C         -2.7584524220       -0.6571405736       -0.3261163048
 C         -1.8506818266        0.4742836776       -0.7561451755
 S         -0.5644947036        0.8422223591        0.5062049967
 S          0.5645125360       -0.8423579061        0.5060798959
 C          1.8507021572       -0.4741496493       -0.7561930562
 C          2.7583950282        0.6572943656       -0.3260415564
 H         -3.5043233525       -0.8430486326       -1.0948019779
 H         -2.1810165124       -1.5674999223       -0.1712966672
 H         -3.2631679258       -0.4058073751        0.6036493088
 H         -2.3894429494        1.4147616157       -0.8530798715
 H         -1.3362366999        0.2517690208       -1.6898655565
 H          2.3895034035       -1.4145952510       -0.8532485177
 H          1.3362655225       -0.2515181173       -1.6898875936
 H          3.5042859928        0.8433579094       -1.0946769143
 H          2.1809270516        1.5676115191       -0.1711028832
 H          3.2630798317        0.4058515779        0.6037067260
  16
        -20.17136058
 C         -2.5662092159       -0.4889928046       -0.7937888689
 C         -1.6337166177        0.7008327192       -0.7260427167
 S         -0.6147781461        0.6811316624        0.8060800671
 S          0.5865972007       -0.9343185019        0.5371557503
 C          2.1836940890       -0.1954649091        0.0018078126
 C          2.0876206411        0.5286494046       -1.3234594955
 H         -3.2339602758       -0.4978414605        0.0643843584
 H         -3.1595429177       -0.4397188659       -1.7033456843
 H         -1.9953090542       -1.4164435858       -0.7973401170
 H         -2.1786613619        1.6404230826       -0.6570823826
 H         -0.9540513739        0.7318588252       -1.5752300142
 H          2.5105414717        0.4652874051        0.8031826346
 H          2.8464557841       -1.0570895659       -0.0551391533
 H          1.4322135434        1.3935406385       -1.2371963140
 H          3.0745388934        0.8755162604       -1.6195606832
 H          1.7035942955       -0.1356811879       -2.0944895894
  16
        -20.16980430
 C         -3.0991526871       -0.6653188213       -0.6337677168
 C         -1.8729371338        0.2220582791       -0.5939810546
 S         -0.6157111890       -0.5226237816        0.5357217784
 S          0.8019594479        0.9219347516        0.6232387996
 C          1.9437479870        0.4701221854       -0.7478038102
 C          2.6389946035       -0.8492841211       -0.4934508743
 H         -2.8384141439       -1.6561833483       -0.9973396864
 H         -3.5269987298       -0.7639118635        0.3607682324
 H         -3.8423068121       -0.2297380158       -1.2966149064
 H         -2.1001839577        1.2110165162       -0.1990975907
 H         -1.4126544970        0.3118621591       -1.5770014656
 H          1.3587145298        0.4538566356       -1.6659742954
 H          2.6451233639        1.3014895479       -0.7779766236
 H          3.3054256449       -1.0792445807       -1.3208845593
 H          3.2182480059       -0.8013639808        0.4254889811
 H          1.9075900158       -1.6506542772       -0.3995004338
  16
        -20.16979155
 C         -1.7910248313        0.2718067823       -1.5921339546
 C         -2.0984588778        0.0564942126       -0.1273457957
 S         -0.7239553005       -0.7229806856        0.8131496015
 S          0.7234219349        0.7156407419        0.8196199491
 C          2.0981057570       -0.0563988282       -0.1267241480
 C          1.7924762886       -0.2564764759       -1.5940645628
 H         -0.9549055496        0.9581586515       -1.7066873033
 H         -1.5473493737       -0.6708061420       -2.0762090691
 H         -2.6602662384        0.7024861097       -2.0829625256
 H         -2.9173250557       -0.6466841114        0.0157359125
 H         -2.3294758495        0.9918267772        0.3803050820
 H          2.9176862668        0.6442070510        0.0243839304
 H          2.3271757808       -0.9970237456        0.3719614586
 H          0.9556660240       -0.9405111303       -1.7168726231
 H          1.5508078580        0.6913579671       -2.0689477948
 H          2.6618657528       -0.6833261292       -2.0880297340
  16
        -20.16978467
 C         -3.0914758766       -0.7089055838       -0.6088207683
 C         -1.8756103559        0.1934768051       -0.6008825582
 S         -0.6180609435       -0.4859383408        0.5688133025
 S          0.8031191190        0.9580378568        0.5669278997
 C          1.9419231121        0.4189744032       -0.7747589202
 C          2.6381825876       -0.8808519537       -0.4364675993
 H         -3.8346595611       -0.3122317083       -1.2955412587
 H         -2.8169642796       -1.7119531318       -0.9256942236
 H         -3.5253971443       -0.7677406675        0.3861625088
 H         -2.1166631052        1.1966322193       -0.2526514857
 H         -1.4093219630        0.2443917938       -1.5838613905
 H          1.3547979392        0.3424734515       -1.6885275792
 H          2.6427241335        1.2469143659       -0.8608905672
 H          1.9072823765       -1.6746132420       -0.2889924540
 H          3.3030939791       -1.1640405465       -1.2484702964
 H          3.2193083488       -0.7726522220        0.4761426722
  16
        -20.16978191
 C         -2.5752551782       -0.9799052519       -0.5529818524
 C         -1.9673808513        0.3949182384       -0.7237877773
 S         -0.8568127310        0.8350092262        0.6763815630
 S          0.6471969919       -0.5118934915        0.5102959202
 C          1.8559726274        0.3723619255       -0.5704142742
 C          3.1241567208       -0.4477493622       -0.6788395732
 H         -1.7931689037       -1.7362249972       -0.5048868806
 H         -3.1566357192       -1.0257432637        0.3647297801
 H         -3.2250722572       -1.2018203886       -1.3956837877
 H         -2.7213343029        1.1793017674       -0.7055085420
 H         -1.3828918056        0.4729878328       -1.6391653360
 H          1.3832293841        0.5071660796       -1.5423053634
 H          2.0373433893        1.3415716635       -0.1084314216
 H          3.5656446767       -0.5935633796        0.3038179555
 H          2.9093008834       -1.4228575782       -1.1089411176
 H          3.8386973725        0.0692645917       -1.3140356557
  16
        -20.16976324
 C         -2.5730577482       -0.9725399122       -0.5700978790
 C         -1.9590140370        0.4014448500       -0.7251678817
 S         -0.8593351758        0.8263671122        0.6882095194
 S          0.6489186045       -0.5146215497        0.5117360588
 C          1.8669016183        0.3939637805       -0.5375842732
 C          3.1048743251       -0.4585629328       -0.7201020043
 H         -3.2154380052       -1.1861842876       -1.4206026826
 H         -1.7939185218       -1.7318133767       -0.5199248589
 H         -3.1634634770       -1.0229458919        0.3415714440
 H         -2.7102494099        1.1884448676       -0.7080389454
 H         -1.3659470225        0.4836009206       -1.6346600875
 H          1.3810959681        0.6024865349       -1.4897980834
 H          2.0886930113        1.3274934812       -0.0226507002
 H          2.8506278030       -1.3965237036       -1.2075067626
 H          3.8266100746        0.0746212341       -1.3334187243
 H          3.5562338952       -0.6814800239        0.2434158508
  16
        -20.16974451
 C         -2.6632393104        0.1861997926       -0.9622495435
 C         -1.9477719225       -0.8979240244       -0.1863229350
 S         -0.8006672637       -0.2003889683        1.0724741968
 S          0.5939058674        0.7527904121       -0.0453114754
 C          1.8630077724       -0.5626517857       -0.3197343891
 C          3.1800055037        0.0774475379       -0.7041013115
 H         -3.3313037434       -0.2633596805       -1.6924377727
 H         -3.2441656353        0.8128541300       -0.2898747205
 H         -1.9445903692        0.8152158292       -1.4857088611
 H         -1.3609581704       -1.5474123597       -0.8338956984
 H         -2.6364519853       -1.4989528094        0.4041848556
 H          1.9401409662       -1.1166306292        0.6142620883
 H          1.4900901874       -1.2135154916       -1.1094204435
 H          3.0670825423        0.6595988799       -1.6155270713
 H          3.5242431070        0.7381771657        0.0877288465
 H          3.9256576247       -0.6963313236       -0.8689299465
  16
        -20.16968538
 C         -3.2288951420        0.2507218527       -0.3998808132
 C         -1.8162394251       -0.1664672730       -0.7503523997
 S         -0.6303197028        0.5384690514        0.4818925937
 S          0.8159213041       -0.8754367026        0.5832103895
 C          2.0075398394       -0.3594253711       -0.7211173872
 C          2.6525578526        0.9718595995       -0.4043605300
 H         -3.9220595990       -0.1612485944       -1.1289671209
 H         -3.4972373087       -0.1142461428        0.5884478084
 H         -3.3162976445        1.3344216772       -0.4036780162
 H         -1.5214486548        0.2065714431       -1.7301842174
 H         -1.6928890673       -1.2472494338       -0.7093155372
 H          2.7329888553       -1.1703952119       -0.7355782228
 H          1.4654704500       -0.3381981897       -1.6651524781
 H          3.3492368863        1.2401900012       -1.1945049605
 H          1.8953869189        1.7507059650       -0.3256573405
 H          3.1906014861        0.9172997549        0.5389787547
  16
        -20.16968204
 C         -2.6702679396       -0.9591241657       -0.3736468459
 C         -2.0108041444        0.3574656543       -0.7205993444
 S         -0.8011960645        0.8814055707        0.5639244347
 S          0.6240799791       -0.5545790354        0.4749361804
 C          1.8130782700        0.1083120601       -0.7784312959
 C          3.2351194129       -0.1836805238       -0.3484647258
 H         -3.3765225612       -1.2333680017       -1.1531616788
 H         -1.9223816291       -1.7459534211       -0.2862452382
 H         -3.1999906193       -0.8801012047        0.5726630219
 H         -2.7258011939        1.1774246425       -0.7442947366
 H         -1.4769285797        0.3112339063       -1.6684393865
 H          1.5764919203       -0.3713238508       -1.7270559808
 H          1.6234614591        1.1781848302       -0.8432006856
 H          3.9276917840        0.2023726583       -1.0922147726
 H          3.4457816940        0.2873821282        0.6085136801
 H          3.3879354776       -1.2553846287       -0.2475981450
  16
        -20.16950631
 C         -2.4776222371        1.1118368431        0.2722167449
 C         -1.8207988346        0.3284007899       -0.8428142194
 S         -0.8466787645       -1.0954225141       -0.2001497635
 S          0.6560689879       -0.1893831155        0.8125054674
 C          1.9802264505       -0.0193786320       -0.4683930392
 C          2.7231459522        1.2865947195       -0.2790022066
 H         -3.0399344036        1.9436760738       -0.1443371908
 H         -3.1537843555        0.4739391198        0.8362237218
 H         -1.7239441064        1.5041626636        0.9533602856
 H         -1.1430578229        0.9454487352       -1.4309523553
 H         -2.5520809425       -0.1382402860       -1.4996799373
 H          2.6397888165       -0.8781329851       -0.3542664106
 H          1.4845408604       -0.0664859055       -1.4362520826
 H          3.5044166470        1.3728339364       -1.0299830876
 H          2.0441652764        2.1300446611       -0.3767452501
 H          3.1781557489        1.3228908206        0.7076157854
  16
        -20.16921118
 C         -2.0267287719       -0.9711893493       -1.1617389461
 C         -2.2594178351        0.0853718361       -0.1039970324
 S         -0.8815343446        0.2045246009        1.1098459565
 S          0.7031887329        0.7988214211       -0.0077585470
 C          1.6236658166       -0.7797859686       -0.2884416484
 C          3.0223961774       -0.4608205122       -0.7728028565
 H         -2.9081230551       -1.0532798010       -1.7928752854
 H         -1.1801307333       -0.6996104913       -1.7894417995
 H         -1.8331969165       -1.9369933047       -0.7003382512
 H         -3.1172543079       -0.1514088523        0.5227840719
 H         -2.3854930477        1.0759152882       -0.5380104291
 H          1.6358600425       -1.3023128490        0.6665550033
 H          1.0688336510       -1.3612114844       -1.0226068954
 H          3.5713086240       -1.3851048080       -0.9332511338
 H          2.9829995560        0.0934159465       -1.7073207023
 H          3.5499655471        0.1406798894       -0.0367295386
  16
        -20.16919731
 C         -1.9990824705       -0.8934558745       -1.2328382597
 C         -2.2527667445        0.0903887312       -0.1117851473
 S         -0.8903401447        0.1429347836        1.1244926515
 S          0.7064227697        0.7957527670        0.0570156841
 C          1.6381762547       -0.7655493193       -0.2752257081
 C          2.9859215386       -0.4215522485       -0.8735649804
 H         -1.1427128360       -0.5792106278       -1.8266674552
 H         -1.8112829159       -1.8875858873       -0.8333739627
 H         -2.8695214270       -0.9347630019       -1.8829628254
 H         -3.1160180502       -0.1923670082        0.4878663390
 H         -2.3817379010        1.1057557363       -0.4831050018
 H          1.7389887818       -1.2742324119        0.6821316323
 H          1.0399775711       -1.3698521474       -0.9547165794
 H          2.8593119081        0.1160703501       -1.8100048206
 H          3.5545639576        0.2046214440       -0.1905591021
 H          3.5434864754       -1.3350536627       -1.0631538423
  16
        -20.16915822
 C         -3.0613676427        0.4336221575       -0.6701911039
 C         -1.6030844582        0.0731479574       -0.8604349789
 S         -0.6988359755        0.3161187688        0.7346694611
 S          0.8665701406       -0.9627248833        0.5737485906
 C          2.2680394553        0.1126319955        0.0592319868
 C          2.0596044953        0.7454486881       -1.2991625565
 H         -3.5965999775        0.2917386453       -1.6055481021
 H         -3.5105050872       -0.1962718491        0.0936471398
 H         -3.1581775114        1.4719016521       -0.3622499949
 H         -1.1297304587        0.7063255457       -1.6089342952
 H         -1.4772397768       -0.9748456472       -1.1263277110
 H          2.3981046411        0.8588470433        0.8413953977
 H          3.1147384358       -0.5714351976        0.0615583579
 H          1.2218518855        1.4394837427       -1.2697584029
 H          2.9519572582        1.2974480040       -1.5836513043
 H          1.8630559832       -0.0169615210       -2.0494887482
  16
        -20.16910288
 C         -1.9265546758       -0.6938801472       -1.3868755763
 C         -2.2215490192        0.1259270930       -0.1500155154
 S         -0.9147899651       -0.0160240324        1.1390032567
 S          0.7250573829        0.7730734485        0.2415491505
 C          1.6682287903       -0.7300620400       -0.2752410321
 C          2.8662954039       -0.3085657582       -1.0997578836
 H         -1.0357375663       -0.3183326392       -1.8872440726
 H         -1.7768375789       -1.7391265890       -1.1250284534
 H         -2.7630228472       -0.6216027263       -2.0776678365
 H         -3.1134020999       -0.2252555835        0.3655368204
 H         -2.3242709647        1.1852162324       -0.3795900036
 H          1.9664629360       -1.2410240511        0.6390639287
 H          0.9889130005       -1.3606913538       -0.8451262179
 H          3.5119541470        0.3479529684       -0.5217710545
 H          3.4314918257       -1.1885734352       -1.3953096168
 H          2.5456248890        0.2222477803       -1.9928276577
  16
        -20.16904634
 C         -2.4424581367        0.7084818510       -1.3288084084
 C         -1.7796205372       -0.3806193598       -0.5116616029
 S         -0.7515481034        0.3568617759        0.8402604186
 S          0.9230284784       -0.7868230883        0.8406080619
 C          2.1276361283        0.2156544381       -0.1256736869
 C          1.7410563886        0.3561811261       -1.5815810648
 H         -3.0741966595        1.3254839359       -0.6948808318
 H         -1.6973896749        1.3471366295       -1.7972838839
 H         -3.0561532398        0.2576534748       -2.1046409401
 H         -1.1099034077       -0.9916111117       -1.1129589806
 H         -2.5163693336       -1.0172380902       -0.0242410025
 H          2.2035291959        1.1812574911        0.3713336051
 H          3.0597957636       -0.3330795107       -0.0050583290
 H          0.8020623076        0.8982025625       -1.6742802028
 H          2.5117458965        0.9113102459       -2.1105178879
 H          1.6327048623       -0.6220148817       -2.0444643422
  16
        -20.16903840
 C         -1.7373546993       -0.2638924831       -1.6032359787
 C         -2.1130979905        0.2518115913       -0.2313427438
 S         -0.9532976683       -0.3064317981        1.0851726446
 S          0.7793386454        0.6390348822        0.6203036488
 C          1.7501829240       -0.6520700231       -0.2846680738
 C          2.4585640674       -0.0444427791       -1.4772301570
 H         -0.7724666817        0.1362809663       -1.9079916201
 H         -1.6862261672       -1.3502923085       -1.6027289373
 H         -2.4840715269        0.0517434219       -2.3275545507
 H         -3.0721874886       -0.1412560333        0.1005032853
 H         -2.1300322608        1.3397672734       -0.1949653512
 H          2.4583837955       -1.0630851166        0.4330191807
 H          1.0415428598       -1.4226035159       -0.5802663444
 H          1.7423417907        0.3790893774       -2.1772918714
 H          3.1321115639        0.7456226442       -1.1549542660
 H          3.0351435821       -0.8124116402       -1.9866537575
  16
        -20.16903758
 C         -1.7370070110       -0.3555787968       -1.5824096346
 C         -2.1268073319       -0.2150645899       -0.1272892684
 S         -0.9236978290        0.7860567063        0.8423335653
 S          0.7517396554       -0.3562262947        0.8407323724
 C          1.7786548294        0.3805562395       -0.5125496757
 C          2.4396274717       -0.7093196672       -1.3301136053
 H         -2.5070997289       -0.9097384322       -2.1131647392
 H         -1.6265247147        0.6225637643       -2.0449625466
 H         -0.7986219477       -0.8989888305       -1.6730736222
 H         -2.2052245038       -1.1807917655        0.3691421652
 H         -3.0583193716        0.3351184724       -0.0086231197
 H          1.1083287586        0.9914444584       -1.1131350495
 H          2.5162038741        1.0173135522       -0.0266413140
 H          1.6936198390       -1.3478835952       -1.7971251303
 H          3.0520176422       -0.2592023899       -2.1073382556
 H          3.0721033905       -1.3262422013       -0.6967170457
  16
        -20.16903388
 C         -2.5581324161        0.7440829021       -1.2212447336
 C         -1.7455003584       -0.3588691693       -0.5761918380
 S         -0.7423022491        0.3266825469        0.8200914737
 S          0.9257399258       -0.8266877622        0.8053567187
 C          2.1520923474        0.2110046339       -0.0946230940
 C          1.7742506404        0.4506028775       -1.5399993344
 H         -3.1529619272        0.3303725487       -2.0315478162
 H         -3.2241714210        1.1992307797       -0.4925146675
 H         -1.9063896359        1.5170226710       -1.6213185057
 H         -1.0441077872       -0.8084534068       -1.2755858450
 H         -2.3844926262       -1.1313830910       -0.1511226200
 H          2.2447869977        1.1422866952        0.4615904338
 H          3.0728882464       -0.3623627189       -0.0059466668
 H          1.6508748261       -0.4940205248       -2.0649526772
 H          0.8462249633        1.0157978345       -1.6012436111
 H          2.5576246527        1.0237223025       -2.0295972299
  16
        -20.16888715
 C         -2.2324146035        0.5304562086       -1.5189204511
 C         -1.9119928261       -0.3325679072       -0.3166969977
 S         -0.7290423929        0.4926014280        0.8423134941
 S          0.8734051708       -0.7545311443        0.8697941775
 C          2.1344733278        0.0958482330       -0.1661060944
 C          1.7115586913        0.2529645858       -1.6092816709
 H         -1.3483057565        0.6938240723       -2.1297454511
 H         -2.9858643344        0.0351543181       -2.1265000573
 H         -2.6181540624        1.4953328027       -1.1993791094
 H         -1.4526860629       -1.2775541034       -0.5990115000
 H         -2.8034176925       -0.5252363087        0.2779513694
 H          2.3363275527        1.0558510558        0.3061991400
 H          3.0039743297       -0.5513575852       -0.0658684703
 H          2.5273791505        0.6854827887       -2.1830365412
 H          1.4508407926       -0.7113836911       -2.0393979719
 H          0.8528872624        0.9178882563       -1.6779338048
  16
        -20.16875923
 C         -2.0541270539        0.3551395279       -1.6139939511
 C         -1.9051612825       -0.4355370737       -0.3310303277
 S         -0.8829676298        0.4637375316        0.9184483794
 S          0.8968808595       -0.5031920472        0.9188684774
 C          1.9336364502        0.4272889826       -0.2932417062
 C          1.9968683320       -0.2641184553       -1.6390066615
 H         -2.6742129679       -0.1996346346       -2.3140364960
 H         -2.5232337266        1.3147836172       -1.4121366797
 H         -1.0859781781        0.5369353114       -2.0747545756
 H         -1.4211231432       -1.3972533153       -0.4888932980
 H         -2.8678258471       -0.5880930631        0.1532678073
 H          1.5082577908        1.4268091436       -0.3586264326
 H          2.9163939583        0.4795767193        0.1714924015
 H          2.4032802001       -1.2663052542       -1.5284523289
 H          1.0078741358       -0.3412743770       -2.0845118525
 H          2.6369457664        0.3032576025       -2.3103746230
  16
        -20.16764833
 C         -3.3131206630        0.0001650332       -0.5994186494
 C         -1.8681280286       -0.4474964712       -0.6603458147
 S         -0.8838874175        0.4933597404        0.5894332642
 S          0.8855804558       -0.4879075019        0.5978980977
 C          1.8589019754        0.4102129052       -0.6917218160
 C          3.3185430032        0.0245245926       -0.5780403380
 H         -3.8962002026       -0.5507489329       -1.3328277963
 H         -3.7243567246       -0.1833514501        0.3899971590
 H         -3.3890377467        1.0633375420       -0.8135050129
 H         -1.4280402046       -0.2465424907       -1.6359779207
 H         -1.7591805294       -1.5019205382       -0.4118390380
 H          1.4459424105        0.1320932780       -1.6602986831
 H          1.7051924849        1.4727834081       -0.5113899137
 H          3.7033593446        0.2860193516        0.4044540080
 H          3.4399382560       -1.0460551047       -0.7229681405
 H          3.8938491559        0.5510081862       -1.3351125081
  16
        -20.16762557
 C         -3.3112134579       -0.0037830026       -0.6021346247
 C         -1.8624566626       -0.4382050358       -0.6700222625
 S         -0.8864011722        0.4878244827        0.5973004286
 S          0.8864189941       -0.4879269479        0.5972648609
 C          1.8623587195        0.4379648256       -0.6702620161
 C          3.3112899503        0.0042364905       -0.6019383446
 H         -3.7219226216       -0.2097772081        0.3830848983
 H         -3.3965730375        1.0625355104       -0.7959007994
 H         -3.8886279184       -0.5457424643       -1.3465730866
 H         -1.4234382895       -0.2163394959       -1.6416802950
 H         -1.7451531400       -1.4959268609       -0.4403588857
 H          1.4235924385        0.2154974270       -1.6418847301
 H          1.7445409990        1.4957353357       -0.4410330143
 H          3.3968990200       -1.0623993348       -0.7940270587
 H          3.8882702719        0.5452074402       -1.3473738091
 H          3.7221009320        0.2119278509        0.3828754252
  16
        -20.16752969
 C         -3.3259509994        0.1004648942       -0.3715408414
 C         -1.8684164747        0.2036416291       -0.7680670689
 S         -0.8166562201       -0.7544603726        0.4167668970
 S          0.8025931649        0.4316142541        0.6673461224
 C          1.9370709451       -0.1435582623       -0.6730928856
 C          3.2882462048        0.5179135811       -0.5022955577
 H         -3.6477668458       -0.9379087204       -0.3755030894
 H         -3.4772496955        0.5057264737        0.6258177749
 H         -3.9352145381        0.6603894416       -1.0764055558
 H         -1.5119573295        1.2311267334       -0.7270017457
 H         -1.6921788616       -0.2145516336       -1.7579430567
 H          2.0002983057       -1.2270002859       -0.5849282561
 H          1.4756513337        0.1270077236       -1.6217084674
 H          3.9570261962        0.1876647658       -1.2927907320
 H          3.1899007325        1.5995621021       -0.5514595224
 H          3.7200672384        0.2537925862        0.4596878865
