  11
  -13.8098527000000       0.111215795787785      !
 C         -2.1291560114       -1.2591446308       -0.1437322741
 C         -1.5045564303       -0.0000124752        0.4155394044
 C         -2.1284428483        1.2594732290       -0.1436914104
 I          0.6670253414       -0.0000401046       -0.0106801214
 H         -2.0472288824       -1.2851318170       -1.2284118818
 H         -1.6574818001       -2.1510668507        0.2623535123
 H         -3.1848130731       -1.2767602296        0.1227874613
 H         -1.5428746224       -0.0000379333        1.5044816644
 H         -3.1844766774        1.2769843761        0.1213178927
 H         -2.0448711537        1.2862274810       -1.2282283739
 H         -1.6573817126        2.1510673693        0.2637357479
  11
  -13.8098519700000       0.111129916735658      !
 C         -2.1290830029       -1.2590442699       -0.1437313782
 C         -1.5046589337        0.0002062991        0.4154862873
 C         -2.1287048505        1.2596771588       -0.1436634255
 I          0.6670576891       -0.0000974368       -0.0106779325
 H         -3.1849368117       -1.2764498253        0.1220387979
 H         -2.0463135699       -1.2853842196       -1.2283428227
 H         -1.6578269546       -2.1508870649        0.2629999148
 H         -1.5429647443        0.0001843676        1.5044300733
 H         -2.0459594798        1.2860385296       -1.2282683372
 H         -1.6571776454        2.1513673106        0.2630801674
 H         -3.1845479389        1.2773987927        0.1221114321
  11
  -13.8098518700000       0.111118157647240      !
 C         -2.1290245849       -1.2588746838       -0.1437729556
 C         -1.5044763128        0.0002449587        0.4155318241
 C         -2.1286881077        1.2595415172       -0.1436975722
 I          0.6670282947       -0.0001048733       -0.0106756380
 H         -1.6577191996       -2.1506267707        0.2630384116
 H         -3.1848629017       -1.2762803337        0.1220711388
 H         -2.0462971972       -1.2853272984       -1.2283937528
 H         -1.5426524295        0.0002877726        1.5044810948
 H         -3.1845188162        1.2772380208        0.1221796531
 H         -2.0459794239        1.2858814470       -1.2283152637
 H         -1.6570680305        2.1511661858        0.2630587700
  11
  -13.8098518300000       0.111113454360360      !
 C         -2.1288019259       -1.2587096616       -0.1437983732
 C         -1.5043380209        0.0004218512        0.4155359391
 C         -2.1287416434        1.2596278112       -0.1437017734
 I          0.6669917664       -0.0001523153       -0.0106750146
 H         -2.0462955903       -1.2851160116       -1.2284460409
 H         -1.6573489511       -2.1504119957        0.2629443918
 H         -3.1845508916       -1.2762345448        0.1222691726
 H         -1.5420895745        0.0003787417        1.5045145042
 H         -1.6571540502        2.1512613851        0.2630093238
 H         -3.1845205968        1.2772515677        0.1223833918
 H         -2.0462024534        1.2860804685       -1.2283292672
  11
  -13.8098517500000       0.111104048383819      !
 C         -2.1290240474       -1.2589644752       -0.1437542040
 C         -1.5045236120        0.0002076426        0.4155175189
 C         -2.1286401906        1.2595902450       -0.1436848823
 I          0.6670284347       -0.0000966793       -0.0106772212
 H         -3.1848585054       -1.2763876593        0.1220712675
 H         -2.0463122911       -1.2853489555       -1.2283665063
 H         -1.6577265223       -2.1507604983        0.2629933060
 H         -1.5427305595        0.0002038467        1.5044625618
 H         -1.6571404555        2.1512313879        0.2631491259
 H         -3.1844660596        1.2772920371        0.1221042604
 H         -2.0458950007        1.2860111888       -1.2282988220
  11
  -13.8098517100000       0.111099345694141      !
 C         -2.1291952738       -1.2590762065       -0.1437298760
 C         -1.5046168689        0.0001105629        0.4154340928
 C         -2.1286743546        1.2595804867       -0.1436743921
 I          0.6670621954       -0.0000728373       -0.0106727351
 H         -1.6578690588       -2.1509219755        0.2628960521
 H         -3.1849976175       -1.2764727507        0.1222242051
 H         -2.0466224442       -1.2853873333       -1.2283502780
 H         -1.5427717202        0.0000843259        1.5043796261
 H         -2.0458523585        1.2860535964       -1.2282722781
 H         -1.6571803024        2.1512134811        0.2632066871
 H         -3.1845278188        1.2772746729        0.1220455783
  11
  -13.8098516500000       0.111092292032840      !
 C         -2.1288849744       -1.2588911337       -0.1437723079
 C         -1.5043880328        0.0002179694        0.4155827307
 C         -2.1285242308        1.2595393474       -0.1437027768
 I          0.6669811273       -0.0001005287       -0.0106801154
 H         -3.1847186461       -1.2762958406        0.1220539667
 H         -2.0461436986       -1.2852598616       -1.2283931226
 H         -1.6575917724       -2.1506470585        0.2629849649
 H         -1.5422911247        0.0001798448        1.5045445844
 H         -3.1843482069        1.2772240845        0.1221198624
 H         -2.0457546576        1.2859908405       -1.2283191261
 H         -1.6569796488        2.1511434933        0.2631403453
  11
  -13.8098514900000       0.111073484458500      !
 C         -2.1326662204       -1.2594249318       -0.1438013175
 C         -1.5052723655       -0.0014874096        0.4150967611
 C         -2.1297632135        1.2577844804       -0.1439541859
 I          0.6676899538        0.0003379702       -0.0106042804
 H         -1.6630180773       -2.1521308029        0.2623529615
 H         -3.1881187693       -1.2751410510        0.1234693790
 H         -2.0509196664       -1.2857926746       -1.2285856832
 H         -1.5434712430       -0.0013335446        1.5040471026
 H         -1.6584945546        2.1494633457        0.2628342854
 H         -3.1854434316        1.2755624360        0.1221244714
 H         -2.0472471772        1.2840921961       -1.2285266606
  11
  -13.8098513200000       0.111053504899656      !
 C         -2.1289885290       -1.2589680063       -0.1437497242
 C         -1.5045521281        0.0002261292        0.4155331058
 C         -2.1286381635        1.2596256420       -0.1436789373
 I          0.6670257443       -0.0001021778       -0.0106797425
 H         -2.0460967071       -1.2854127615       -1.2283487073
 H         -1.6577735717       -2.1507511748        0.2631192674
 H         -3.1848657043       -1.2763519689        0.1219163886
 H         -1.5427367982        0.0002053396        1.5044833409
 H         -2.0458850151        1.2860280820       -1.2282894183
 H         -1.6570645840        2.1512572707        0.2631156921
 H         -3.1844758777        1.2773588366        0.1221261180
