  11
    -0.875538 !GC
 C          0.0000000000        0.0000000000        0.0000000000
 C          1.4716863169        0.0000000000        0.0000000000
 C          2.2549442846        1.0856158488        0.0000000000
 C          3.6948715811        0.9938665844       -0.0031300792
 O          4.4641061794        1.9389053203        0.0006781269
 H         -0.3603915218        0.4940167080       -0.9015359445
 H         -0.3669532475        0.5718420524        0.8525385078
 H         -0.3903783500       -1.0129910629        0.0422417668
 H          1.9291291035       -0.9825754256        0.0023242257
 H          1.8385159291        2.0829650187        0.0089914873
 H          4.0959063061       -0.0376156161        0.0032864811
  11
    -0.752668 !GC
 C          0.0000000000        0.0000000000        0.0000000000
 C          1.4716151594        0.0000000000        0.0000000000
 C          2.2553490494        1.0851518626        0.0000000000
 C          3.6952890517        0.9924626745       -0.0035318946
 O          4.4656477956        1.9366365013       -0.0019080198
 H         -0.3950612786       -1.0102438829        0.0507492978
 H         -0.3673079800        0.4995843780       -0.8968856628
 H         -0.3547667952        0.5753182282        0.8546199893
 H          1.9287547959       -0.9826736786        0.0023094636
 H          1.8395412521        2.0830332138        0.0081065851
 H          4.0949667135       -0.0391315324        0.0044744059
  11
    -0.641903 !GC
 C          0.0000000000        0.0000000000        0.0000000000
 C          1.4704019502        0.0000000000        0.0000000000
 C          2.2610346730        1.0820111247        0.0000000000
 C          3.7047330683        0.9734140390       -0.0029543895
 O          4.3429379795       -0.0648285733       -0.0071968529
 H         -0.3586959279        0.5797314590        0.8496756049
 H         -0.4014983347       -1.0094110861        0.0409267344
 H         -0.3541209701        0.5033660688       -0.8993648058
 H          1.9419059752       -0.9764413010        0.0021258015
 H          1.8489655137        2.0794658854        0.0085761795
 H          4.2414991959        1.9398966391       -0.0136959588
  11
    -0.159328 !GC
 C          0.0000000000        0.0000000000        0.0000000000
 C          1.4783792806        0.0000000000        0.0000000000
 C          2.2387197825        1.1012469913        0.0000000000
 C          3.6749036042        1.0453976854        0.0000142838
 O          4.3366510195        0.0222889371       -0.0001216860
 H         -0.3309861214        1.0409623547        0.0020142701
 H         -0.4014330337       -0.4595123323        0.8980176883
 H         -0.4005882945       -0.4555231874       -0.9004207070
 H          1.9423802016       -0.9782195052        0.0005045528
 H          1.8029748191        2.0927645181       -0.0016819493
 H          4.1819778311        2.0299440637        0.0001268872
  11
    -0.156186 !GC
 C          0.0000000000        0.0000000000        0.0000000000
 C          1.4783030765        0.0000000000        0.0000000000
 C          2.2387969744        1.1011760246        0.0000000000
 C          3.6749874128        1.0451978271        0.0011820489
 O          4.3367866762        0.0221301696        0.0053436422
 H         -0.3306980293       -0.4690473586        0.9295787176
 H         -0.4360401750       -0.5205135250       -0.8430343887
 H         -0.3654020734        1.0230933427        0.0786399495
 H          1.9421683237       -0.9782811421        0.0010853535
 H          1.8030673561        2.0927961248       -0.0029095539
 H          4.1818063211        2.0296400726       -0.0020018323
  11
    -0.154403 !GC
 C          0.0000000000        0.0000000000        0.0000000000
 C          1.4782894506        0.0000000000        0.0000000000
 C          2.2394937222        1.1004379554        0.0000000000
 C          3.6757045287        1.0428914042        0.0004747485
 O          4.3369655455        0.0193111540        0.0014996778
 H         -0.4017784003        1.0087352743       -0.0044810484
 H         -0.3660566061       -0.5326860704        0.8765424451
 H         -0.3655804118       -0.5411791918       -0.8715629180
 H          1.9417798359       -0.9783952479        0.0006481030
 H          1.8053306109        2.0924011673       -0.0010542730
 H          4.1831265747        2.0270378189       -0.0001056257
  11
    -0.062082 !GC
 C          0.0000000000        0.0000000000        0.0000000000
 C          1.4716101128        0.0000000000        0.0000000000
 C          2.2550200179        1.0855416863        0.0000000000
 C          3.6949531550        0.9936611365       -0.0019547419
 O          4.4644010091        1.9385346568       -0.0012783048
 H         -0.3601117053        0.5841157805        0.8462586842
 H         -0.4023256980       -1.0086892216        0.0465592056
 H         -0.3549928893        0.4971337578       -0.9026997866
 H          1.9289166382       -0.9826350712        0.0029077243
 H          1.8385972751        2.0830013900        0.0077658757
 H          4.0955579084       -0.0377351339        0.0085162566
  11
    -0.024818 !GC
 C          0.0000000000        0.0000000000        0.0000000000
 C          1.4783081232        0.0000000000        0.0000000000
 C          2.2391338799        1.1007930911        0.0000000000
 C          3.6753546734        1.0440075032       -0.0003844869
 O          4.3369893403        0.0207857101        0.0012768890
 H         -0.3662234248       -0.5355924578       -0.8744708735
 H         -0.4017891869        1.0088219499        0.0012181799
 H         -0.3651728333       -0.5375834084        0.8736551768
 H          1.9420069127       -0.9783197635        0.0004896765
 H          1.8040094204        2.0928490093       -0.0025682545
 H          4.1823635865        2.0281627995       -0.0021179031
  11
    -0.021827 !GC
 C          0.0000000000        0.0000000000        0.0000000000
 C          1.4770001634        0.0000000000        0.0000000000
 C          2.2453164157        1.0973677879        0.0000000000
 C          3.6856753383        1.0239409982        0.0022505164
 O          4.4433289624        1.9785525061       -0.0016876604
 H         -0.3652537643        1.0223973506       -0.0898179015
 H         -0.4348510445       -0.5114504237        0.8493108548
 H         -0.3290370039       -0.4799685698       -0.9250078848
 H          1.9546608949       -0.9721333122        0.0010530376
 H          1.8149148076        2.0890791352       -0.0018099221
 H          4.0989070521       -0.0022667384        0.0080216224
  11
    -0.020509 !GC
 C          0.0000000000        0.0000000000        0.0000000000
 C          1.4770711947        0.0000000000        0.0000000000
 C          2.2449042866        1.0978249267        0.0000000000
 C          3.6852365057        1.0253384425        0.0026518922
 O          4.4417475029        1.9808176351        0.0008928881
 H         -0.3299823815       -0.4661025527        0.9317283436
 H         -0.4344936414       -0.5240869566       -0.8415066163
 H         -0.3651685293        1.0239764301        0.0740483576
 H          1.9550325132       -0.9720288470        0.0010677564
 H          1.8138819203        2.0890004085       -0.0009244680
 H          4.0998321770       -0.0007323617        0.0068359858
  11
    -0.000497 !GC
 C          0.0000000000        0.0000000000        0.0000000000
 C          1.4703832776        0.0000000000        0.0000000000
 C          2.2613853311        1.0816458126        0.0000000000
 C          3.7050478638        0.9722820116       -0.0020844147
 O          4.3428726149       -0.0663060554       -0.0069499961
 H         -0.3943905598       -1.0107036501        0.0542713793
 H         -0.3657125688        0.4963345761       -0.8992339608
 H         -0.3545277002        0.5794812369        0.8524514971
 H          1.9416793766       -0.9765180640        0.0022842870
 H          1.8502871706        2.0789750744        0.0100812296
 H          4.2422338592        1.9387495991       -0.0116703280
  11
    -0.000067 !GC
 C          0.0000000000        0.0000000000        0.0000000000
 C          1.4703535025        0.0000000000        0.0000000000
 C          2.2611879188        1.0818430881        0.0000000000
 C          3.7048326429        0.9727578256       -0.0023564586
 O          4.3425958407       -0.0657580284       -0.0059513751
 H         -0.3584156621        0.4891685649       -0.9049537557
 H         -0.3664377830        0.5781668326        0.8485204243
 H         -0.3897400111       -1.0132054134        0.0478824430
 H          1.9417408722       -0.9764878784        0.0024574302
 H          1.8494066376        2.0794983397        0.0078827821
 H          4.2419359989        1.9390539866       -0.0133745852
