  15
  -30.4334937800000       0.250147496419061      !
 C          0.0356086354       -1.2147056669       -0.0001037079
 C          1.4071201391       -1.2117788844       -0.0000098557
 C          2.1131143554        0.0011661008       -0.0000271874
 C          1.4086577668        1.2124038412       -0.0000207516
 C          0.0347330719        1.2129135271       -0.0000974608
 C         -0.6587012594       -0.0001025629       -0.0002165517
 N         -2.0662795012        0.0008200724       -0.0004282745
 O         -2.6592989874       -1.0736185060        0.0002610250
 O         -2.6575458620        1.0765570069        0.0002789003
 O          3.4442247959       -0.0565285430        0.0001686176
 H         -0.5245129581       -2.1363540210       -0.0000584744
 H          1.9683683017       -2.1314089062        0.0002309269
 H          1.9435101644        2.1491590448       -0.0000160133
 H         -0.5263641213        2.1342443577        0.0000981550
 H          3.8552447642        0.8248525066        0.0001161974
  15
  -30.4334936300000       0.250107793852051      !
 C          0.0355997468       -1.2147135788       -0.0005772190
 C          1.4071410662       -1.2117890496       -0.0004954787
 C          2.1131428273        0.0011504990       -0.0000320450
 C          1.4086830459        1.2123728315        0.0005037890
 C          0.0347460633        1.2128785986        0.0005525124
 C         -0.6587180085       -0.0000951902       -0.0000249527
 N         -2.0662998961        0.0008319414       -0.0000029097
 O         -2.6576006633        1.0765563089        0.0012029562
 O         -2.6593049746       -1.0736175128       -0.0012305121
 O          3.4442537179       -0.0564691828        0.0000094154
 H         -0.5245367687       -2.1363418162       -0.0006504759
 H          1.9684206950       -2.1314256103       -0.0003695545
 H          1.9435372140        2.1491208003        0.0008869770
 H         -0.5263392692        2.1341967626        0.0014544559
 H          3.8552143491        0.8249301726       -0.0001184492
  15
  -30.4334927400000       0.249872354864444      !
 C          0.0244062451       -1.2131160708        0.0000426114
 C          1.3982868902       -1.2243418531        0.0000014725
 C          2.1130489347       -0.0191853560       -0.0000799572
 C          1.4174363019        1.1997395399        0.0000198391
 C          0.0459784262        1.2143788444        0.0000692922
 C         -0.6586918310        0.0057499114        0.0000388189
 N         -2.0662354505        0.0167910937        0.0000036891
 O         -2.6665712854       -1.0539094253       -0.0000256007
 O         -2.6501686503        1.0961834722       -0.0000545260
 O          3.4445800275        0.0271701657        0.0000085913
 H         -0.5446017072       -2.1295831892       -0.0001719627
 H          1.9251644339       -2.1656007968        0.0000796738
 H          1.9865399036        2.1145507034        0.0000200453
 H         -0.5061735857        2.1407879205        0.0000076164
 H          3.8482081369       -0.8575876665        0.0000516683
  15
  -30.4334927400000       0.249872354864444      !
 C          0.0234792212       -1.2131433844        0.0002119303
 C          1.3973716202       -1.2253867132        0.0001323730
 C          2.1130410763       -0.0207428061        0.0001239128
 C          1.4183230000        1.1986874020        0.0000709728
 C          0.0468807366        1.2143419978        0.0001090983
 C         -0.6586894432        0.0062348790        0.0001112477
 N         -2.0662221908        0.0183138956        0.0000468706
 O         -2.6493842127        1.0981427678       -0.0002130519
 O         -2.6673219476       -1.0519539045       -0.0000586844
 O          3.4446197912        0.0246615328       -0.0002988335
 H         -0.5462323572       -2.1291807276        0.0004450099
 H          1.9235681960       -2.1670429903       -0.0001422397
 H          1.9880973345        2.1130794598       -0.0005919864
 H         -0.5045710656        2.1411643308        0.0002792067
 H          3.8476236399       -0.8604029264       -0.0006351673
