  10
        -17.79798549
 C         -1.9444652673        0.0582331848       -0.0030915486
 C         -0.6881701568       -0.7883968060        0.0038990924
 N          0.5263563870        0.0227682244        0.0004706993
 O          0.4320956385        1.2304728601        0.0014545236
 O          1.5894534437       -0.5722077203       -0.0026413679
 H         -2.8151464347       -0.5888584194        0.0000259340
 H         -1.9788046934        0.7013621111        0.8721496829
 H         -1.9766885541        0.6899191957       -0.8867228936
 H         -0.6294979624       -1.4397403952       -0.8720218892
 H         -0.6322900829       -1.4272441822        0.8892445818
