  14
  -23.3784624100000       0.500349204241609      !
 C         -1.1986688703       -1.2016474847        0.0088524467
 C          0.1807417539       -1.2040223365        0.0024267360
 C          0.8640054352        0.0000030911       -0.0000368384
 C          0.1807475164        1.2040297482        0.0025045663
 C         -1.1986644539        1.2016549650        0.0088150925
 C         -1.9174204226        0.0000015416        0.0106301575
 N         -3.2815453964       -0.0000063117       -0.0478164778
 Cl         2.6138763378       -0.0000035951       -0.0033183878
 H         -1.7319575361       -2.1396823228        0.0103356968
 H          0.7260536264       -2.1344630868        0.0019806998
 H          0.7260512899        2.1344467577        0.0017793616
 H         -1.7319429535        2.1396728940        0.0102762690
 H         -3.7571169057       -0.8553455025        0.1806691180
 H         -3.7571313251        0.8553527642        0.1806318551
  14
  -23.3784610900000       0.499650795758391      !
 C         -1.1985869308       -1.2016983562       -0.0181578986
 C          0.1807635815       -1.2040374570       -0.0005048477
 C          0.8639757349       -0.0000034924        0.0077029455
 C          0.1807841854        1.2040333381       -0.0005862522
 C         -1.1985761736        1.2016959144       -0.0180352702
 C         -1.9173261209       -0.0000003387       -0.0264389601
 N         -3.2818492364       -0.0000052699        0.0185293477
 Cl         2.6137676719        0.0000076728        0.0249728534
 H         -1.7317845801       -2.1397399872       -0.0235239594
 H          0.7260990831       -2.1344404964        0.0028243854
 H          0.7261225144        2.1344432922        0.0043624137
 H         -1.7317843721        2.1397411417       -0.0219316419
 H         -3.7550651645        0.8553268732       -0.2151162425
 H         -3.7550820520       -0.8554036404       -0.2149473026
