! r2scan-3c def2/J RI DEFGRID2 scfconv6 printgap
%output
    printlevel normal
end
* xyz 0 1
C -2.4120310508 -0.1022601896 -2.14241e-05
C -1.8290500351 -1.3573829805 0.0001219499
C -0.4492459924 -1.4755119422 1.85258e-05
C 0.3346590856 -0.3378544267 5.06121e-05
C -0.2368470412 0.9357533182 5.12237e-05
C -1.6244503704 1.034649066 -0.0001065202
O 0.5763674079 2.0179009477 7.52626e-05
Cl 2.0715018036 -0.4738047835 -7.17636e-05
H -3.4857993988 -0.0036043346 0.0001163622
H -2.4403231279 -2.2448040259 -1.13595e-05
H 0.025536951 -2.4428013056 -0.0001169904
H -2.0834290442 2.0117935893 -8.78485e-05
H 0.0549472505 2.8360002601 6.65427e-05
*
