  20
        -22.41217128
 C          1.8829379753       -0.0059585129       -0.2856800688
 C          1.1712765742       -1.2534345174        0.2303173215
 C         -0.2947103119       -1.2477091940       -0.1918759501
 C         -1.0056510281        0.0046877782        0.3224233538
 C         -0.2828426973        1.2554281283       -0.2016216188
 C          1.1834129218        1.2521141143        0.2202639216
 N         -2.4173662704       -0.0561206168       -0.0392186506
 H          1.8748108823       -0.0101282822       -1.3780886961
 H          2.9241192806       -0.0085488395        0.0420457276
 H          1.6615192991       -2.1487301460       -0.1561465560
 H          1.2328202449       -1.2805442668        1.3204405674
 H         -0.3617179878       -1.2702778551       -1.2824750539
 H         -0.8066123345       -2.1301031207        0.1932592889
 H         -0.9638247287        0.0088636950        1.4192701056
 H         -0.3485420033        1.2726842845       -1.2935605796
 H         -0.7780326757        2.1531162958        0.1791539814
 H          1.6827693492        2.1408357659       -0.1712963607
 H          1.2436856977        1.2860793165        1.3105332321
 H         -2.5060646335       -0.0699734248       -1.0505202890
 H         -2.8927584401        0.7754952305        0.2943283004
  20
        -22.41049265
 C          1.8733595378        0.0066954555       -0.3258357144
 C          1.1866305086       -1.2451699700        0.2111456651
 C         -0.2894214061       -1.2532000081       -0.1733841853
 C         -0.9986750353       -0.0027090437        0.3493641554
 C         -0.3005226768        1.2488028218       -0.1858067181
 C          1.1755324870        1.2577057392        0.1986813940
 N         -2.3851213740       -0.0111372219       -0.1076884851
 H          1.8326268011        0.0011119830       -1.4168834889
 H          2.9231895563        0.0128317377       -0.0266082101
 H          1.6737633773       -2.1380905038       -0.1845583277
 H          1.2770387269       -1.2683618326        1.3000997922
 H         -0.3931330082       -1.2760777651       -1.2592024257
 H         -0.7760372486       -2.1445415293        0.2293831063
 H         -0.9236532722        0.0030739002        1.4555771857
 H         -0.4042512412        1.2599937537       -1.2718077239
 H         -0.7950767095        2.1397681172        0.2080369290
 H          1.6547592059        2.1509275631       -0.2059104906
 H          1.2656149601        1.2925197909        1.2873400762
 H         -2.8691662841        0.8074535084        0.2445265993
 H         -2.8619800710       -0.8303247334        0.2527307568
  20
        -22.40973140
 C          1.7819242304        0.0150797361       -0.1739668131
 C          0.9419523178       -1.2465109220       -0.3473338828
 C         -0.2185159928       -1.2534337474        0.6444698681
 C         -1.1113992649       -0.0069272703        0.4955854906
 C         -0.2572978615        1.2613516091        0.6031533818
 C          0.9182599038        1.2573049640       -0.3717320534
 N         -1.9054762575        0.0261398670       -0.7266500362
 H          2.6064084692        0.0156586530       -0.8898731099
 H          2.2090004930        0.0274976080        0.8314934978
 H          0.5588293786       -1.2908365609       -1.3701519413
 H          1.5603835769       -2.1330110149       -0.1911725262
 H         -0.8242813262       -2.1532829480        0.5053998543
 H          0.1792204293       -1.2746474583        1.6612036887
 H         -1.8357406147       -0.0048855249        1.3216682891
 H         -0.8932730947        2.1268106327        0.4148565088
 H          0.1250485611        1.3332420106        1.6231889528
 H          0.5480028903        1.2861810660       -1.3985502982
 H          1.5181614561        2.1558509602       -0.2151551417
 H         -2.4665072017       -0.8160565927       -0.7913251347
 H         -1.2927758118        0.0441114136       -1.5345884534
  20
        -22.40902908
 C          1.7575752351        0.0029536169       -0.2124500278
 C          0.9000556857       -1.2494876605       -0.3579783519
 C         -0.2269728184       -1.2450892950        0.6698271866
 C         -1.1021068951        0.0031834186        0.5190804213
 C         -0.2350436312        1.2605426805        0.6372085436
 C          0.8919410363        1.2455587308       -0.3905090606
 N         -1.7628932954       -0.0159110753       -0.7812634539
 H          2.5561027165       -0.0041739508       -0.9565379577
 H          2.2196693032        0.0174478567        0.7780294933
 H          0.4635528823       -1.2702055651       -1.3569059705
 H          1.5121552410       -2.1440853087       -0.2281782283
 H         -0.8433490706       -2.1389898406        0.5504236588
 H          0.1919855421       -1.2578941806        1.6782126982
 H         -1.8358099906        0.0116734634        1.3523350695
 H         -0.8571304581        2.1471131056        0.4947728452
 H          0.1838707924        1.3021385065        1.6448588433
 H          0.4553177412        1.2372367876       -1.3895723588
 H          1.4981879929        2.1472185855       -0.2842071256
 H         -2.3546124479        0.8013420568       -0.8793114905
 H         -2.3509779813       -0.8381718806       -0.8567719180
  20
        -22.40387439
 C          1.9012700152       -0.0355362461       -0.2191671958
 C          0.9165006251       -1.1892326624       -0.4462208880
 C         -0.2060304773       -1.1480384523        0.5850219155
 C         -1.0768537583        0.1093554428        0.4195935517
 C         -0.2517511915        1.2630608700       -0.1871316320
 C          1.1866724324        1.2127859979        0.3150985929
 N         -2.2655019313       -0.2247933441       -0.3587422480
 H          2.4022217925        0.1976587016       -1.1605790330
 H          2.6698018008       -0.3405999452        0.4927535547
 H          0.4868357016       -1.1226859946       -1.4474941620
 H          1.4431869344       -2.1424901575       -0.3838328922
 H         -0.8498798947       -2.0222364502        0.4849137721
 H          0.2297792557       -1.1663486233        1.5843902459
 H         -1.4395022413        0.4171797732        1.4081731300
 H         -0.2542953966        1.1807892857       -1.2774904941
 H         -0.7112898227        2.2194698155        0.0723200135
 H          1.7243356139        2.1101921443        0.0046399108
 H          1.1725271408        1.1996420638        1.4065284977
 H         -2.8368811720        0.6037287295       -0.4843170737
 H         -1.9851260397       -0.5414132976       -1.2819361883
  20
        -22.40385121
 C          1.8014889611       -0.0188547746        0.4233292275
 C          1.1900848550       -1.1494501285       -0.3970676121
 C         -0.2921844297       -1.3229223921       -0.0454181104
 C         -0.9565969388        0.0178220901        0.3397031263
 C         -0.2810058768        1.1562745277       -0.4229647021
 C          1.1731862631        1.3250301781        0.0316422771
 N         -2.3945478642        0.0493268866        0.1016141584
 H          2.8807579510        0.0172517578        0.2680563414
 H          1.6279944376       -0.2197780433        1.4821054692
 H          1.3003493582       -0.9147436029       -1.4572276942
 H          1.7236765179       -2.0830223254       -0.2104968169
 H         -0.8199635725       -1.7475828898       -0.9043001138
 H         -0.3986317813       -2.0256706321        0.7842275831
 H         -0.8226904327        0.1946345190        1.4134863244
 H         -0.3219214341        0.9314431527       -1.4907467018
 H         -0.8392408320        2.0778017486       -0.2587331181
 H          1.7461582959        1.7797070556       -0.7780847770
 H          1.2159145616        2.0035339992        0.8848824566
 H         -2.5765938306       -0.0716509964       -0.8900532643
 H         -2.8389544307       -0.7215190495        0.5881901771
  20
        -22.40365174
 C          1.8920217461        0.0218754951       -0.2554049829
 C          1.1805642955       -1.2064382839        0.3269097497
 C         -0.2679110917       -1.2637743211       -0.1447932019
 C         -1.0786372938       -0.0941077477        0.4327770716
 C         -0.1820295303        1.1564799811        0.5905660236
 C          0.9134641132        1.1829229259       -0.4693658285
 N         -2.2539679784        0.1197221498       -0.4034966970
 H          2.3557373617       -0.2349556868       -1.2093634590
 H          2.6891127433        0.3306866582        0.4229901334
 H          1.7057006656       -2.1143290167        0.0276456231
 H          1.1922174455       -1.1653058532        1.4176431386
 H         -0.2975314923       -1.2158453795       -1.2347402812
 H         -0.7315449702       -2.2044243832        0.1515095435
 H         -1.4571595558       -0.3753905140        1.4230831028
 H         -0.8016844581        2.0542446273        0.5164838075
 H          0.2786721279        1.1587207034        1.5796479585
 H          0.4560150239        1.1072507010       -1.4582049349
 H          1.4495094773        2.1329287279       -0.4320974456
 H         -1.9633300680        0.4364217437       -1.3231560906
 H         -2.8372904423        0.8457669235       -0.0022499090
