  20
        -22.41217128
 C          1.8829379753       -0.0059585129       -0.2856800688
 C          1.1712765742       -1.2534345174        0.2303173215
 C         -0.2947103119       -1.2477091940       -0.1918759501
 C         -1.0056510281        0.0046877782        0.3224233538
 C         -0.2828426973        1.2554281283       -0.2016216188
 C          1.1834129218        1.2521141143        0.2202639216
 N         -2.4173662704       -0.0561206168       -0.0392186506
 H          1.8748108823       -0.0101282822       -1.3780886961
 H          2.9241192806       -0.0085488395        0.0420457276
 H          1.6615192991       -2.1487301460       -0.1561465560
 H          1.2328202449       -1.2805442668        1.3204405674
 H         -0.3617179878       -1.2702778551       -1.2824750539
 H         -0.8066123345       -2.1301031207        0.1932592889
 H         -0.9638247287        0.0088636950        1.4192701056
 H         -0.3485420033        1.2726842845       -1.2935605796
 H         -0.7780326757        2.1531162958        0.1791539814
 H          1.6827693492        2.1408357659       -0.1712963607
 H          1.2436856977        1.2860793165        1.3105332321
 H         -2.5060646335       -0.0699734248       -1.0505202890
 H         -2.8927584401        0.7754952305        0.2943283004
