  16
  -19.8788007100000       0.188598934184846      !
 C          2.0573144500        0.0256187596       -0.3562269326
 C          0.7640434900        0.1032113352        0.4493014670
 H          1.0086148864        0.1827116621        1.5172933466
 C         -0.1499997884        1.2598237700        0.0038766220
 C         -1.5425567370        0.6305856121       -0.0010028997
 C         -1.2120003333       -0.8148403944       -0.3646592618
 O          0.0031988144       -1.1047664895        0.3064335181
 H          2.6323848022        0.9361027260       -0.2156174409
 H          2.6464878866       -0.8253298571       -0.0256365289
 H          1.8330555524       -0.0986751139       -1.4128921559
 H         -0.0749154513        2.1128501461        0.6729514379
 H          0.1238702604        1.5758929643       -1.0030283634
 H         -1.9839728880        0.6696614664        0.9948945986
 H         -2.2184900392        1.0935356029       -0.7143629633
 H         -1.9523569329       -1.5402360503       -0.0255105610
 H         -1.0740462847       -0.9219145412       -1.4502297673
  16
  -19.8788006900000       0.188594942738368      !
 C          2.0579710478        0.0257386126       -0.3555022910
 C          0.7640098700        0.1032265777        0.4490034643
 H          1.0079575662        0.1826640915        1.5171706679
 C         -0.1500897085        1.2596308720        0.0031586414
 C         -1.5427702233        0.6307063810       -0.0004681479
 C         -1.2125514879       -0.8147714032       -0.3642175858
 O          0.0033780698       -1.1048646120        0.3056678200
 H          1.8346393246       -0.0985013285       -1.4124131942
 H          2.6328856759        0.9363040030       -0.2143336673
 H          2.6470729048       -0.8250657674       -0.0244116763
 H         -0.0744110452        2.1130322426        0.6716719269
 H          0.1233796371        1.5749748692       -1.0040980492
 H         -1.9832029036        0.6697855071        0.9958531177
 H         -2.2193574856        1.0935969110       -0.7132605912
 H         -1.9526827141       -1.5401396613       -0.0243111516
 H         -1.0757349837       -0.9220667512       -1.4500151411
  16
  -19.8788005900000       0.188574986775174      !
 C          2.0583801951        0.0259807208       -0.3548385599
 C          0.7639400838        0.1031908499        0.4488273456
 H          1.0072070073        0.1827336295        1.5171386883
 C         -0.1499941544        1.2594712829        0.0024727427
 C         -1.5427467051        0.6307711821       -0.0000151066
 C         -1.2131064526       -0.8148271083       -0.3637467264
 O          0.0034945852       -1.1049486661        0.3048945886
 H          2.6473624322       -0.8247580639       -0.0232839871
 H          1.8358469296       -0.0983977544       -1.4118879127
 H          2.6329942021        0.9367001409       -0.2132081345
 H         -0.0739168515        2.1135063177        0.6701914742
 H          0.1229733970        1.5738029793       -1.0052447516
 H         -1.9823302304        0.6702787555        0.9966728944
 H         -2.2198169875        1.0936148662       -0.7123961350
 H         -1.9530229938       -1.5399105979       -0.0229167147
 H         -1.0774501390       -0.9223178965       -1.4495859028
  16
  -19.8785508300000       0.144777921427648      !
 C          1.9200876703        0.1291586918       -0.5249392444
 C          0.7881198320        0.0525236867        0.4985025437
 H          1.2200657085       -0.0123374510        1.5058711889
 C         -0.1991391235        1.2227501959        0.3774724513
 C         -1.2874020054        0.6469343916       -0.5266177498
 C         -1.3083011564       -0.8131495234       -0.0805946378
 O          0.0246738438       -1.1426068772        0.2888701353
 H          1.5153991408        0.2410510635       -1.5272835169
 H          2.5660370826        0.9727239422       -0.3001162666
 H          2.5038222845       -0.7866386226       -0.4883523307
 H         -0.6143913696        1.4675837874        1.3551382928
 H          0.2754640185        2.1067794441       -0.0392782072
 H         -2.2518580625        1.1291918192       -0.3947129626
 H         -0.9917159701        0.7169581042       -1.5731559017
 H         -1.9617620761       -0.9461321245        0.7931484689
 H         -1.6203676605       -1.5069103179       -0.8639682340
  16
  -19.8785505000000       0.144727373181792      !
 C          1.9217921398        0.1292047937       -0.5231827413
 C          0.7879229400        0.0523249077        0.4980753322
 H          1.2178050650       -0.0129646237        1.5063770655
 C         -0.1989348439        1.2229800108        0.3759966248
 C         -1.2885850667        0.6465868220       -0.5261483700
 C         -1.3092684550       -0.8127969491       -0.0780973996
 O          0.0249538445       -1.1427428921        0.2858651869
 H          2.5676340186        0.9724715363       -0.2965862938
 H          2.5049734618       -0.7869096380       -0.4859713620
 H          1.5189865767        0.2417373288       -1.5262433746
 H         -0.6130122096        1.4700533922        1.3536423789
 H          0.2760288049        2.1058772373       -0.0427526325
 H         -2.2526012555        1.1295885952       -0.3938038248
 H         -0.9941118004        0.7147325126       -1.5731509182
 H         -1.9590537113       -0.9434108769        0.7987268299
 H         -1.6251751559       -1.5077256255       -0.8588531441
  16
  -19.8785504900000       0.144725841692171      !
 C          1.9217767632        0.1291478471       -0.5231992806
 C          0.7878998684        0.0523570220        0.4980628676
 H          1.2177909818       -0.0128717944        1.5063457975
 C         -0.1989894932        1.2229535813        0.3760399573
 C         -1.2886067034        0.6466123250       -0.5261775236
 C         -1.3092243646       -0.8127633177       -0.0780952497
 O          0.0249973546       -1.1427525744        0.2858773047
 H          2.5051286691       -0.7868420921       -0.4860044460
 H          1.5190305394        0.2416536560       -1.5262532711
 H          2.5675240642        0.9724110046       -0.2967190765
 H         -0.6129826904        1.4697558210        1.3537652231
 H          0.2759596035        2.1059537850       -0.0425187683
 H         -2.2526825860        1.1295904527       -0.3939584638
 H         -0.9939265804        0.7148367667       -1.5731318375
 H         -1.9590961522       -0.9433474870        0.7987022227
 H         -1.6251209067       -1.5076303923       -0.8588839687
