  15
    -0.224890 !GC
 C          0.0000000000        0.0000000000        0.0000000000
 C          1.3858829233        0.0000000000        0.0000000000
 C          2.0684404837        1.2143844286        0.0000000000
 C          1.3577031635        2.4211279224       -0.0011074572
 C         -0.0255228238        2.4141877511       -0.0012967491
 C         -0.7018286747        1.1882159592       -0.0008825327
 O         -0.8529488076        3.4820621721       -0.0009546474
 C          3.5245175457        1.2419964384        0.0032848759
 O          4.2506192341        0.2666832348        0.0066956367
 H         -0.5402469413       -0.9328523479       -0.0000143157
 H          1.9208938311       -0.9354912091       -0.0000588004
 H          1.9610218462        3.3196772335       -0.0015697222
 H         -1.7775060295        1.2287677126       -0.0016858757
 H         -1.7818200893        3.2042429300       -0.0005723799
 H          3.9626312997        2.2562260233        0.0026876025
  15
    -0.164018 !GC
 C          0.0000000000        0.0000000000        0.0000000000
 C          1.3811501959        0.0000000000        0.0000000000
 C          2.0685043308        1.2166592183        0.0000000000
 C          1.3614708448        2.4179420237       -0.0004078672
 C         -0.0278152918        2.4121973053       -0.0009039696
 C         -0.7048073296        1.1928977109       -0.0009449585
 O         -0.6686293911        3.6027057486       -0.0011046005
 C          3.5257516120        1.2395189243        0.0014821079
 O          4.2163258441        2.2390949654        0.0052628026
 H         -0.5394990590       -0.9338873060       -0.0001632886
 H          1.9327390076       -0.9264371051       -0.0000103004
 H          1.8974202220        3.3543789877        0.0002632377
 H         -1.7843755830        1.1775123338       -0.0011992245
 H         -1.6307502791        3.4783667535       -0.0055459267
 H          3.9964950925        0.2397717032       -0.0006785269
  15
    -0.088219 !GC
 C          0.0000000000        0.0000000000        0.0000000000
 C          1.3849699884        0.0000000000        0.0000000000
 C          2.0711978531        1.2133825422        0.0000000000
 C          1.3638771520        2.4213130420       -0.0018027226
 C         -0.0200420380        2.4138084021       -0.0028987191
 C         -0.6994471371        1.1898676014       -0.0019967390
 O         -0.8452893494        3.4838749085       -0.0035365403
 C          3.5269859656        1.2395814454        0.0034902506
 O          4.2139227032        2.2428991114        0.0070504063
 H         -0.5402278049       -0.9327789737        0.0007871857
 H          1.9356880318       -0.9268256808        0.0012943176
 H          1.9501914007        3.3308825186       -0.0015093590
 H         -1.7750466911        1.2325411872       -0.0028098983
 H         -1.7739779277        3.2064582597       -0.0064379238
 H          4.0037132865        0.2431063011        0.0024702052
  15
    -0.051885 !GC
 C          0.0000000000        0.0000000000        0.0000000000
 C          1.3840022975        0.0000000000        0.0000000000
 C          2.0667604402        1.2163057544        0.0000000000
 C          1.3558113716        2.4194778490       -0.0009487398
 C         -0.0300031417        2.4131482135       -0.0014259946
 C         -0.7050279912        1.1895597972       -0.0012622303
 O         -0.7667757770        3.5460225452       -0.0013695161
 C          3.5232667393        1.2455796300        0.0031285013
 O          4.2491371530        0.2704521170        0.0037143784
 H         -0.5396983792       -0.9334593956       -0.0001712257
 H          1.9194715632       -0.9351675672       -0.0001102841
 H          1.9337379254        3.3326901170       -0.0007193055
 H         -1.7829576154        1.2005043069       -0.0016940952
 H         -0.1961582502        4.3303199851        0.0018158071
 H          3.9582520684        2.2609355392        0.0045551995
