  15
        -26.15715491
 C         -1.0119620237       -1.8042719179       -0.0000064171
 C          0.3582999876       -1.6170664772        0.0000377067
 C          0.8747968825       -0.3205542038       -0.0000164728
 C          0.0115541095        0.7776167856        0.0000133149
 C         -1.3614778084        0.5836574126        0.0000626398
 C         -1.8682946383       -0.7185564272       -0.0000182731
 O         -2.2446964874        1.6067384052       -0.0000172204
 C          2.3154354389       -0.1025997785        0.0000105739
 O          2.8670651091        0.9802685981       -0.0000216647
 H         -1.4207706817       -2.8021054877       -0.0001459111
 H          1.0299199986       -2.4609182610       -0.0000732326
 H          0.4434321092        1.7682302675        0.0000419352
 H         -2.9384712562       -0.8500887932       -0.0001218614
 H         -1.7884828690        2.4623103227       -0.0000696370
 H          2.9178876462       -1.0292096878       -0.0000039518
