  16
  -17.8772783500000       8.106783270264922E-002 !
 C          2.1094788836        1.0022268265        0.2165199160
 C          1.4248958074        0.0982909810       -0.4584956887
 C          0.7533815647       -1.0904984137        0.1503629761
 C         -0.7537818054       -1.0905095275       -0.1504918672
 C         -1.4251138133        0.0982917310        0.4584961693
 C         -2.1088905276        1.0027298436       -0.2163873415
 H          2.5742767078        1.8455584129       -0.2648739395
 H          2.2376478338        0.9338913651        1.2845745990
 H          1.3083966231        0.1936588488       -1.5305507221
 H          0.9139754005       -1.0949013363        1.2298802380
 H          1.1918874760       -2.0011298710       -0.2664422645
 H         -1.1923112023       -2.0012299471        0.2661092241
 H         -0.9143905111       -1.0946614013       -1.2299838566
 H         -1.3096466060        0.1928421774        1.5306713945
 H         -2.5736297742        1.8459940803        0.2651560560
 H         -2.2358497685        0.9353227004       -1.2845903465
  16
  -17.8772781300000       8.104896207554203E-002 !
 C          2.1030538218        1.0023914684       -0.2683280354
 C          1.4363677046        0.0977332628        0.4232536482
 C          0.7495488420       -1.0906334741       -0.1691269757
 C         -0.7497280716       -1.0903067515        0.1688700420
 C         -1.4357985065        0.0986609077       -0.4231454550
 C         -2.1033501240        1.0026444208        0.2684989591
 H          2.5796778704        1.8455499306        0.2016533413
 H          2.2031647799        0.9353135495       -1.3394532849
 H          1.3474842468        0.1921703381        1.4980066168
 H          1.1979735308       -2.0015960373        0.2362655771
 H          0.8832279208       -1.0946056175       -1.2522861440
 H         -0.8834942065       -1.0946113306        1.2520184581
 H         -1.1986529631       -2.0008688764       -0.2368777592
 H         -1.3457523777        0.1940563030       -1.4976881607
 H         -2.5804507114        1.8455911107       -0.2013882953
 H         -2.2042942286        0.9348414501        1.3394853138
  16
  -17.8772570100000       7.925768400182699E-002 !
 C          2.2898850844        0.9380747489        0.1311117142
 C          1.6376732533       -0.0922428108       -0.3740898895
 C          0.6693642363       -0.9420689296        0.3839425523
 C         -0.7195027304       -0.9517996825       -0.2762653151
 C         -1.3492012576        0.4035657694       -0.2358913300
 C         -2.5100271960        0.6728264963        0.3313629001
 H          2.9807998852        1.5213571770       -0.4535288124
 H          2.1603777894        1.2403101971        1.1576450513
 H          1.7828488582       -0.3724268939       -1.4101050522
 H          0.5816956750       -0.5831238577        1.4109076928
 H          1.0454940179       -1.9684793962        0.4091877469
 H         -1.3600960448       -1.6726652892        0.2341431340
 H         -0.6110259928       -1.2656293272       -1.3182908063
 H         -0.7724286548        1.1914184784       -0.7033227041
 H         -2.9253090707        1.6660959272        0.3413273801
 H         -3.0991271243       -0.0947454516        0.8066476189
  16
  -17.8772529700000       7.891957215661594E-002 !
 C          2.2914281005        0.9484685410       -0.0155114616
 C          1.6424983216       -0.1471074719        0.3320641876
 C          0.6627983147       -0.8686684277       -0.5362276933
 C         -0.7166604345       -0.9836254981        0.1335859434
 C         -1.3459504018        0.3603611728        0.3147166868
 C         -2.5154345783        0.7124832689       -0.1851770965
 H          2.9912890584        1.4332201770        0.6437457175
 H          2.1505551847        1.4061346615       -0.9812520503
 H          1.7992185067       -0.5843331033        1.3104431630
 H          1.0376432249       -1.8779480981       -0.7271797298
 H          0.5612642836       -0.3533612917       -1.4929707385
 H         -0.5937106572       -1.4563185412        1.1121501505
 H         -1.3648474092       -1.6168308456       -0.4742853788
 H         -0.7612063905        1.0669429986        0.8898351311
 H         -2.9302064665        1.6943605256       -0.0336910676
 H         -3.1125842500        0.0270325952       -0.7645570573
  16
  -17.8772526900000       7.889619218075068E-002 !
 C          2.5194518637        0.7094801846        0.1833163472
 C          1.3464318667        0.3620601873       -0.3115747415
 C          0.7160969064       -0.9819424267       -0.1340290934
 C         -0.6633799273       -0.8680402350        0.5357673005
 C         -1.6434224952       -0.1468801339       -0.3324660984
 C         -2.2938679076        0.9474483698        0.0157279026
 H          2.9351109588        1.6914714012        0.0347641866
 H          3.1186009426        0.0199578516        0.7557745437
 H          0.7597895336        1.0724047920       -0.8800543885
 H          1.3639235712       -1.6171900221        0.4720481760
 H          0.5930548241       -1.4519967516       -1.1138567762
 H         -0.5621761669       -0.3530187299        1.4926765812
 H         -1.0376664816       -1.8775803279        0.7264939152
 H         -1.7994985438       -0.5836986661       -1.3110829632
 H         -2.9945014641        1.4315084198       -0.6431926072
 H         -2.1539286785        1.4044867586        0.9819011132
  16
  -17.8772522300000       7.885779725628936E-002 !
 C          2.5121291053        0.6709209327       -0.3304437249
 C          1.3497918345        0.4038311025        0.2346426026
 C          0.7192128485       -0.9511000648        0.2766915023
 C         -0.6694166393       -0.9411903642       -0.3839711947
 C         -1.6379208707       -0.0916194081        0.3741045909
 C         -2.2919306355        0.9375588138       -0.1312921537
 H          2.9279871154        1.6639137629       -0.3421744481
 H          3.1018216099       -0.0982388197       -0.8022728515
 H          0.7722219149        1.1932951914        0.6985157096
 H          0.6100769050       -1.2632033200        1.3191886083
 H          1.3596061056       -1.6731926606       -0.2323001950
 H         -1.0456444702       -1.9675519691       -0.4094868723
 H         -0.5814918274       -0.5820376036       -1.4108598243
 H         -1.7811428039       -0.3706162697        1.4106748726
 H         -2.9834736168        1.5200648615        0.4534203631
 H         -2.1638698821        1.2391371608       -1.1581518667
  16
  -17.8771866700000       7.357247258033990E-002 !
 C          2.8246918810        0.6109860249        0.0049920204
 C          1.9051073269       -0.3255267755        0.1434987923
 C          0.5661404978       -0.3056396739       -0.5199810613
 C         -0.5662233468       -0.3057669708        0.5199538786
 C         -1.9051322198       -0.3250525212       -0.1437111895
 C         -2.8245914023        0.6115550403       -0.0047593081
 H          3.7759813196        0.5574991193        0.5062053907
 H          2.6647782539        1.4712556456       -0.6243367646
 H          2.0893996081       -1.1785602242        0.7842980642
 H          0.4639516489       -1.1930635114       -1.1508838902
 H          0.4758976079        0.5774589505       -1.1549863757
 H         -0.4759080280        0.5768606657        1.1556447685
 H         -0.4640565661       -1.1936729152        1.1501635971
 H         -2.0898709796       -1.1781677754       -0.7842932716
 H         -3.7757717716        0.5586181497       -0.5062545928
 H         -2.6643145433        1.4718014980        0.6245249102
  16
  -17.8771857500000       7.350088174403818E-002 !
 C          2.8224379863        0.6111720751       -0.1127849427
 C          1.8982696861       -0.3253607602       -0.2165453876
 C          0.5856904133       -0.3060408841        0.4978137655
 C         -0.5857627532       -0.3059469878       -0.4978422033
 C         -1.8983422288       -0.3250163843        0.2165212841
 C         -2.8222978436        0.6117380643        0.1128353617
 H          3.7537190759        0.5582328333       -0.6503360848
 H          2.6866250727        1.4710839626        0.5226686640
 H          2.0579817218       -1.1780417578       -0.8643859093
 H          0.5196740570        0.5767281322        1.1362631086
 H          0.5077561190       -1.1938205569        1.1316632409
 H         -0.5079727450       -1.1937566441       -1.1316623973
 H         -0.5196053422        0.5767876592       -1.1363240116
 H         -2.0582423197       -1.1777059620        0.8643059253
 H         -3.7535943856        0.5589673821        0.6503763799
 H         -2.6862847734        1.4716737246       -0.5225436259
  16
  -17.8771270600000       6.907493621677832E-002 !
 C          2.9533039778       -0.2192775505        0.2030874492
 C          1.8520070778        0.0589573436       -0.4688063700
 C          0.5660095131        0.4982365497        0.1534897430
 C         -0.5654864976       -0.4964517518       -0.1542486927
 C         -1.8515300559       -0.0582660693        0.4687989488
 C         -2.9543241400        0.2167433623       -0.2023130018
 H          3.8573442904       -0.5381130327       -0.2869566107
 H          2.9977120280       -0.1341354249        1.2766825380
 H          1.8333286480       -0.0368925082       -1.5469653327
 H          0.2866737258        1.4769009561       -0.2465953285
 H          0.6877145244        0.5923769572        1.2340084468
 H         -0.2856102667       -1.4751840501        0.2453503623
 H         -0.6875344930       -0.5902045881       -1.2347648578
 H         -1.8311578406        0.0412515824        1.5466092381
 H         -3.8582661275        0.5350146482        0.2882179633
 H         -2.9999646799        0.1296779766       -1.2756826615
  16
  -17.8771267800000       6.905447272113305E-002 !
 C          2.9532897978        0.2180103612        0.2028518536
 C          1.8516320331       -0.0593351315       -0.4690920881
 C          0.5655533636       -0.4984913082        0.1531219083
 C         -0.5652313243        0.4978548854       -0.1522208568
 C         -1.8516743179        0.0583301549        0.4689808716
 C         -2.9535656066       -0.2164648994       -0.2036410200
 H          3.8574765453        0.5364489950       -0.2871395353
 H          2.9981982587        0.1311746939        1.2762532123
 H          1.8324594005        0.0382455562       -1.5470835694
 H          0.6877813170       -0.5948526273        1.2333981280
 H          0.2850947096       -1.4760975664       -0.2487504234
 H         -0.6869059290        0.5948665046       -1.2325020874
 H         -0.2850925093        1.4752735824        0.2503429003
 H         -1.8325964953       -0.0417590808        1.5467417541
 H         -3.8580855349       -0.5351652595        0.2855658017
 H         -2.9983767792       -0.1269915941       -1.2768341481
  16
  -17.8762088700000       2.614264857936758E-002 !
 C          2.7058412936        0.3437437388        0.3188157995
 C          1.5093633875        0.4290040370       -0.2323022230
 C          0.6094369420       -0.7408404043       -0.4723842712
 C         -0.6095903618       -0.7409105719        0.4721549751
 C         -1.5093306092        0.4291764752        0.2325739447
 C         -2.7057218052        0.3443496490       -0.3188272428
 H          3.3230239563        1.2101146147        0.4852953720
 H          3.1215665768       -0.6030280556        0.6236031846
 H          1.1171607088        1.3919294536       -0.5312706187
 H          1.1667174779       -1.6669119565       -0.3202366962
 H          0.2488180877       -0.7171076445       -1.5035884764
 H         -0.2489679823       -0.7176025080        1.5033639946
 H         -1.1670159356       -1.6668478264        0.3196451699
 H         -1.1168166773        1.3919824339        0.5315478612
 H         -3.3227856604        1.2108802408       -0.4849203366
 H         -3.1216868106       -0.6022712067       -0.6238086446
  16
  -17.8762088000000       2.614071217001239E-002 !
 C          2.7025042539        0.3455494004       -0.3286030425
 C          1.5075945265        0.4298494753        0.2260427456
 C          0.6105166345       -0.7409911791        0.4718136819
 C         -0.6115623175       -0.7452358258       -0.4687612052
 C         -1.5091227366        0.4272242311       -0.2324816389
 C         -2.7000445555        0.3480360786        0.3314231989
 H          3.3175932367        1.2126910325       -0.4987888970
 H          3.1191091834       -0.6011613516       -0.6324364554
 H          1.1144859876        1.3926999806        0.5241079150
 H          0.2530195671       -0.7151948541        1.5040570032
 H          1.1687780586       -1.6665634119        0.3202250647
 H         -1.1692600198       -1.6697470557       -0.3088957279
 H         -0.2543355444       -0.7282410607       -1.5012370305
 H         -1.1196289291        1.3869139388       -0.5451292078
 H         -3.3155262059        1.2162254541        0.4946600942
 H         -3.1128745768       -0.5954038179        0.6501848623
  16
  -17.8760366400000       2.178703631291203E-002 !
 C          2.7916235164        0.4449605571       -0.3682721110
 C          1.8301957210       -0.2551468227        0.2040537615
 C          0.4184748391        0.2108946908        0.3631050007
 C         -0.5475791400       -0.7268997433       -0.3651267709
 C         -1.9951525010       -0.3626810846       -0.2468978895
 C         -2.5056611312        0.6585460608        0.4156095741
 H          3.7953325024        0.0675303737       -0.4646641822
 H          2.6142744841        1.4328152014       -0.7612987061
 H          2.0354618114       -1.2461604320        0.5890707978
 H          0.3167611036        1.2232444402       -0.0306174594
 H          0.1653525835        0.2225568646        1.4265424237
 H         -0.4198778638       -1.7450034252        0.0162392742
 H         -0.2866226029       -0.7542081491       -1.4278502078
 H         -2.6578262823       -1.0365694377       -0.7769741942
 H         -3.5674729735        0.8358497442        0.4406484515
 H         -1.8988777888        1.3613169363        0.9594523552
  16
  -17.8760355800000       2.176261178862472E-002 !
 C          2.5059869976        0.6576571159       -0.4159664806
 C          1.9949963623       -0.3629572816        0.2471624664
 C          0.5472453525       -0.7264682550        0.3655885979
 C         -0.4184137531        0.2111287576       -0.3634325562
 C         -1.8302425812       -0.2546844616       -0.2046654175
 C         -2.7914734304        0.4450143167        0.3687834137
 H          3.5678794315        0.8344787329       -0.4410129562
 H          1.8995154699        1.3603813326       -0.9603421341
 H          2.6573984841       -1.0368805366        0.7776504441
 H          0.2861876226       -0.7527959281        1.4283115764
 H          0.4190098123       -1.7448069665       -0.0149713789
 H         -0.1649422938        0.2223979606       -1.4267817522
 H         -0.3167646266        1.2236245207        0.0299275753
 H         -2.0356492741       -1.2453877349       -0.5903867351
 H         -3.7952888300        0.0677848805        0.4648355263
 H         -2.6138537727        1.4323788373        0.7629173191
  16
  -17.8760341400000       2.172947516159405E-002 !
 C          2.8083831303        0.4268992573        0.2433225553
 C          1.8161813556       -0.2396040394       -0.3164569195
 C          0.3987538339        0.2329980614       -0.3713244782
 C         -0.5285715225       -0.7487385276        0.3493005041
 C         -1.9797589491       -0.3802178678        0.3311557597
 C         -2.5232787353        0.6785127558       -0.2398280810
 H          3.8151616232        0.0458520605        0.2628963720
 H          2.6542416723        1.3894709568        0.7031854744
 H          1.9986251437       -1.2058230598       -0.7699126371
 H          0.0892575713        0.3087601558       -1.4170887643
 H          0.3199762167        1.2195262110        0.0877918241
 H         -0.2111222311       -0.8401509799        1.3928934970
 H         -0.4232146157       -1.7416159974       -0.0994566433
 H         -2.6142056724       -1.0859522484        0.8542793169
 H         -3.5845927598        0.8553451165       -0.1970247704
 H         -1.9453318010        1.4138628866       -0.7719170963
  16
  -17.8760340600000       2.172763571790231E-002 !
 C          2.5235651023        0.6771311225        0.2411585268
 C          1.9792941984       -0.3797620053       -0.3324898732
 C          0.5280121347       -0.7479055317       -0.3504003803
 C         -0.3986726430        0.2326792313        0.3726689185
 C         -1.8162545463       -0.2393715412        0.3170261847
 C         -2.8076835026        0.4271270652       -0.2441261590
 H          3.5848657375        0.8538982249        0.1978377039
 H          1.9462552472        1.4110458055        0.7759152154
 H          2.6131244971       -1.0841874094       -0.8581182895
 H          0.4226949792       -1.7416078308        0.0965345397
 H          0.2098914528       -0.8372614253       -1.3939620033
 H         -0.3196205757        1.2200861848       -0.0844978033
 H         -0.0888604288        0.3061558063        1.4184881223
 H         -1.9994412545       -1.2052744998        0.7708521193
 H         -3.8145926346        0.0464608526       -0.2643679076
 H         -2.6527529736        1.3893790646       -0.7044064137
  16
  -17.8755086400000       1.246080667037090E-002 !
 C          1.5954608429        1.0967853534       -0.2733696355
 C          1.7556528434       -0.1338136817        0.1753210361
 C          0.7484023102       -1.2425303650        0.1585196019
 C         -0.6219293025       -0.8891920472       -0.4227497729
 C         -1.3800068006        0.0799253621        0.4284327259
 C         -2.0763847841        1.1035810487       -0.0296479454
 H          2.3910905673        1.8206127172       -0.2184251928
 H          0.6723039478        1.4421511662       -0.7033700330
 H          2.7082838832       -0.4219479886        0.6050972552
 H          0.6224454111       -1.6026804227        1.1844950066
 H          1.1748081099       -2.0712363447       -0.4154957563
 H         -1.2059650100       -1.8132693010       -0.4837751552
 H         -0.5132285707       -0.4990695374       -1.4357174306
 H         -1.3483278762       -0.1192355215        1.4921082999
 H         -2.6239425955        1.7614410259        0.6233038245
 H         -2.1300311857        1.3274039711       -1.0832305607
  16
  -17.8755086100000       1.246041109782376E-002 !
 C          2.0771207606        1.1028704059        0.0298160266
 C          1.3799581543        0.0799672235       -0.4285310334
 C          0.6217484092       -0.8892195102        0.4224777064
 C         -0.7487115448       -1.2423919706       -0.1585299470
 C         -1.7559493974       -0.1336711167       -0.1748034913
 C         -1.5952968673        1.0971759977        0.2730728376
 H          2.6245282976        1.7609790180       -0.6230109542
 H          2.1304248712        1.3266816811        1.0833856039
 H          1.3477984365       -0.1185836992       -1.4922633241
 H          0.5131469981       -0.4993016424        1.4355298449
 H          1.2055612627       -1.8134459778        0.4833409665
 H         -1.1750280433       -2.0711997400        0.4154230275
 H         -0.6229482910       -1.6023330892       -1.1846054670
 H         -2.7091218661       -0.4221474121       -0.6031272325
 H         -2.3906927646        1.8212459725        0.2177083725
 H         -0.6718756483        1.4425682743        0.7025322760
  16
  -17.8755073600000       1.244394006526303E-002 !
 C          1.6103374971        1.0945990557        0.1787630470
 C          1.7406536048       -0.1314505628       -0.2915355854
 C          0.7357302244       -1.2402067047       -0.2217723984
 C         -0.5929127806       -0.8940675614        0.4531363165
 C         -1.4064581613        0.0832332716       -0.3351167832
 C         -2.0687017293        1.1029847164        0.1789542785
 H          2.4013880995        1.8188645476        0.0803196109
 H          0.7167547348        1.4356966275        0.6702649540
 H          2.6637915978       -0.4154169824       -0.7838745925
 H          1.1984689576       -2.0760359533        0.3124145730
 H          0.5418984532       -1.5875186124       -1.2415559212
 H         -0.4167986084       -0.5147469401        1.4607296085
 H         -1.1714773395       -1.8191953867        0.5429551715
 H         -1.4471886990       -0.1055655060       -1.4004156516
 H         -2.6590689814        1.7669856428       -0.4289181409
 H         -2.0499876963        1.3170920268        1.2357821602
  16
  -17.8755072900000       1.244301833149590E-002 !
 C          2.0685381205        1.1026783404       -0.1785320418
 C          1.4064290854        0.0826403205        0.3350613148
 C          0.5927014854       -0.8942585341       -0.4535030170
 C         -0.7359897881       -1.2400867631        0.2214510524
 C         -1.7402454809       -0.1307949206        0.2921596741
 C         -1.6100590152        1.0949169017       -0.1790271576
 H          2.6587729226        1.7665223428        0.4296415460
 H          2.0497152776        1.3173051416       -1.2352177772
 H          1.4477061874       -0.1069744781        1.4001453993
 H          1.1709251527       -1.8195942977       -0.5436289173
 H          0.4167167420       -0.5145755779       -1.4609720545
 H         -0.5421979935       -1.5882262117        1.2409776314
 H         -1.1992389749       -2.0752505832       -0.3133343120
 H         -2.6629589875       -0.4141712973        0.7856625948
 H         -2.4006252972        1.8195965698       -0.0798509987
 H         -0.7168703594        1.4354905564       -0.6715860366
  16
  -17.8749674700000       7.028160095271701E-003 !
 C          2.0344646170        0.8951569317       -0.3577226310
 C          1.7890114647       -0.1756271646        0.3744588437
 C          0.6155911153       -1.1026404983        0.2728959047
 C         -0.5507835282       -0.6210937345       -0.5965787733
 C         -1.2823030964        0.5179588920        0.0395734657
 C         -2.5782156659        0.5237780247        0.2902872895
 H          2.9243353574        1.4829751945       -0.2077445182
 H          1.3724408108        1.2400708536       -1.1331139336
 H          2.5038300477       -0.4671682327        1.1352642192
 H          0.2453241965       -1.3021057157        1.2827772133
 H          0.9821893247       -2.0552342902       -0.1232796377
 H         -1.2423784673       -1.4507131540       -0.7551250093
 H         -0.1686838999       -0.3138703220       -1.5729563954
 H         -0.6716864044        1.3682304184        0.3121978690
 H         -3.0674844809        1.3630716343        0.7545906815
 H         -3.2087362467       -0.3124973138        0.0343425150
  16
  -17.8749662700000       7.019241163942303E-003 !
 C          2.5784731493        0.5231330664       -0.2904650555
 C          1.2826296524        0.5177608822       -0.0394576993
 C          0.5507272513       -0.6211186057        0.5965295753
 C         -0.6157231359       -1.1023183678       -0.2730593016
 C         -1.7895197445       -0.1757477969       -0.3738342311
 C         -2.0343143747        0.8958358305        0.3573688734
 H          3.0680465623        1.3624629202       -0.7543768236
 H          3.2087505255       -0.3133545036       -0.0346559587
 H          0.6723263833        1.3683487141       -0.3117696003
 H          0.1686989572       -0.3137903136        1.5728953088
 H          1.2421012729       -1.4509252988        0.7551018891
 H         -0.9818858282       -2.0554693420        0.1221908479
 H         -0.2456293885       -1.3006099994       -1.2832354750
 H         -2.5057324949       -0.4688682451       -1.1326895874
 H         -2.9248947978        1.4827645641        0.2082364385
 H         -1.3713807173        1.2420509370        1.1313945176
  16
  -17.8749640100000       7.002474562723486E-003 !
 C          2.5835112214        0.5614599989        0.1297184825
 C          1.2819261577        0.5135936265       -0.0842449695
 C          0.5376396434       -0.7192760389       -0.4884279762
 C         -0.6068366107       -1.0346126505        0.4806083804
 C         -1.7794583784       -0.1018503050        0.4421576289
 C         -2.0440353285        0.8217746776       -0.4632724489
 H          3.0819616752        1.4692566770        0.4243817794
 H          3.2095186757       -0.3084047820        0.0121550061
 H          0.6763385454        1.4003729942        0.0460976971
 H          1.2268594089       -1.5655186700       -0.5122156390
 H          0.1318685266       -0.5910097442       -1.4947139953
 H         -0.2124322757       -1.0506435888        1.5008635820
 H         -0.9807408610       -2.0419747074        0.2704003678
 H         -2.4759364123       -0.2516379411        1.2590038263
 H         -2.9315411593        1.4285919155       -0.3999526799
 H         -1.4011427791        1.0213430010       -1.3031016961
  16
  -17.8749639600000       7.002104073397500E-003 !
 C          2.0438024122        0.8220417331        0.4626493286
 C          1.7802379392       -0.1031841723       -0.4414340226
 C          0.6070707069       -1.0352371488       -0.4801950130
 C         -0.5378311571       -0.7188042925        0.4879346827
 C         -1.2819249860        0.5137442946        0.0823871055
 C         -2.5840670266        0.5624682391       -0.1280010964
 H          2.9318791755        1.4280706516        0.3997761871
 H          1.3995344784        1.0237142975        1.3009241305
 H          2.4781179802       -0.2550853920       -1.2566983109
 H          0.9802745994       -2.0427132530       -0.2693154071
 H          0.2133984168       -1.0515264087       -1.5007321042
 H         -0.1324261260       -0.5895256068        1.4942553366
 H         -1.2271639740       -1.5649413604        0.5124608751
 H         -0.6757194596        1.3994712502       -0.0521906573
 H         -3.0823895418        1.4700516394       -0.4235165352
 H         -3.2106711148       -0.3064178873       -0.0064528075
  16
  -17.8746986600000       5.288166531312029E-003 !
 C          2.5904486551       -0.0005606679        0.5187401803
 C          1.8568698519        0.0001923281       -0.5788879187
 C          0.3617314233        0.0002398843       -0.6707147295
 C         -0.3617352005       -0.0001669675        0.6707091725
 C         -1.8568700008       -0.0000628927        0.5788891575
 C         -2.5904436251        0.0003692981       -0.5187355462
 H          3.6663607255       -0.0005941489        0.4725250009
 H          2.1643100770       -0.0012254136        1.5066958097
 H          2.3506754831        0.0008469924       -1.5436036972
 H          0.0594431996       -0.8794571594       -1.2468420118
 H          0.0594475905        0.8802941820       -1.2462890730
 H         -0.0594200322        0.8795167319        1.2468435835
 H         -0.0594941006       -0.8802456418        1.2462738090
 H         -2.3506781077       -0.0004480232        1.5436050431
 H         -3.6663565546        0.0004119347       -0.4725184209
 H         -2.1643014359        0.0007696791       -1.5066938067
  16
  -17.8744938300000       4.257667797435312E-003 !
 C          1.9623699333        1.1235407098        0.0131689568
 C          1.4642709609       -0.0341539792       -0.3775491112
 C          0.6154123246       -0.9265200371        0.4694231743
 C         -0.7409907138       -1.1986498675       -0.1974661722
 C         -1.5615805151        0.0401449947       -0.4198498826
 C         -1.7428118378        1.0067561769        0.4608698123
 H          2.5682144966        1.7341571577       -0.6343176216
 H          1.7871327362        1.5097368239        1.0039141177
 H          1.6538121107       -0.3955019268       -1.3805474099
 H          0.4713459795       -0.4796592888        1.4527893816
 H          1.1280468703       -1.8832544128        0.6029456816
 H         -1.3081707692       -1.8903214008        0.4321412934
 H         -0.5710255536       -1.6911900006       -1.1566096110
 H         -2.0442262923        0.1099014474       -1.3862374133
 H         -2.3516520558        1.8663619044        0.2392335421
 H         -1.2937986783        0.9872863805        1.4392146507
  16
  -17.8743248200000       3.560411167974999E-003 !
 C          1.6389772905        1.0044724408        0.4078767007
 C          1.5408099671        0.0526423372       -0.5010584661
 C          0.5226130052       -1.0451529632       -0.5561820913
 C         -0.5230017065       -1.0453101230        0.5558478887
 C         -1.5407116283        0.0529663463        0.5012391392
 C         -1.6386659366        1.0048180066       -0.4076830085
 H          2.4197174275        1.7449275732        0.3628574234
 H          0.9460665679        1.1001041790        1.2255853293
 H          2.2636004845        0.0138851191       -1.3080703777
 H          1.0648925993       -1.9956579497       -0.5212000078
 H          0.0214871403       -1.0090608821       -1.5276670745
 H         -0.0219394477       -1.0100881387        1.5274047159
 H         -1.0657559472       -1.9955347425        0.5202460734
 H         -2.2632797039        0.0145275176        1.3084341691
 H         -2.4189244488        1.7457649833       -0.3624107375
 H         -0.9461148080        1.0999496708       -1.2256580973
  16
  -17.8743243200000       3.558527861884130E-003 !
 C          1.5935916954        1.0044588843       -0.5592733499
 C          1.5810259806        0.0525057345        0.3547272651
 C          0.5723016055       -1.0451758152        0.5047599166
 C         -0.5725980115       -1.0450948874       -0.5047690847
 C         -1.5808225853        0.0530623944       -0.3549010567
 C         -1.5934866662        1.0046919925        0.5594537587
 H          2.3752886263        1.7447440019       -0.5876210819
 H          0.8271840999        1.1002041873       -1.3084301249
 H          2.3763988548        0.0135215321        1.0902780310
 H          0.1641381705       -1.0092335361        1.5188145162
 H          1.1089216034       -1.9956843531        0.4192306254
 H         -1.1096420233       -1.9953737565       -0.4191622285
 H         -0.1643674394       -1.0094259862       -1.5188002592
 H         -2.3758206354        0.0146657360       -1.0908863212
 H         -2.3748344331        1.7453490802        0.5875917667
 H         -0.8274100390        1.0999043522        1.3090154732
  16
  -17.8741420000000       2.934147214728265E-003 !
 C          1.8428874339        0.9820886159        0.2950733309
 C          1.8168831096       -0.1868755207       -0.3177614226
 C          0.6981400481       -1.1843236748       -0.3189729652
 C         -0.5622425252       -0.7599889182        0.4308640673
 C         -1.2829266395        0.3746046707       -0.2379799549
 C         -2.4820517130        0.8012885579        0.1134685914
 H          2.7052841161        1.6248170202        0.2379811960
 H          1.0155125983        1.3568448364        0.8724596212
 H          2.6818088010       -0.5051969241       -0.8882192702
 H          1.0801361207       -2.1122408353        0.1184144921
 H          0.4414042285       -1.4102591864       -1.3587184779
 H         -0.2989008165       -0.4763198750        1.4533145201
 H         -1.2372383363       -1.6164031289        0.5044642201
 H         -0.7568504362        0.8515507784       -1.0538810025
 H         -2.9668453724        1.6209022932       -0.3883659952
 H         -3.0300130041        0.3470278984        0.9232890224
