  16
        -17.87727835
 C          2.1094788836        1.0022268265        0.2165199160
 C          1.4248958074        0.0982909810       -0.4584956887
 C          0.7533815647       -1.0904984137        0.1503629761
 C         -0.7537818054       -1.0905095275       -0.1504918672
 C         -1.4251138133        0.0982917310        0.4584961693
 C         -2.1088905276        1.0027298436       -0.2163873415
 H          2.5742767078        1.8455584129       -0.2648739395
 H          2.2376478338        0.9338913651        1.2845745990
 H          1.3083966231        0.1936588488       -1.5305507221
 H          0.9139754005       -1.0949013363        1.2298802380
 H          1.1918874760       -2.0011298710       -0.2664422645
 H         -1.1923112023       -2.0012299471        0.2661092241
 H         -0.9143905111       -1.0946614013       -1.2299838566
 H         -1.3096466060        0.1928421774        1.5306713945
 H         -2.5736297742        1.8459940803        0.2651560560
 H         -2.2358497685        0.9353227004       -1.2845903465
