  12
  -17.4778696900000       0.273182323263328      !
 C          2.1078476375        0.0166872842        0.0002994674
 N          0.6705126698       -0.0033883584       -0.0003678595
 C         -0.1203883940       -1.1153486970       -0.0002037043
 C         -1.4088776228       -0.6640953306        0.0002172956
 N         -1.4252920335        0.6964237023        0.0001323465
 C         -0.1653838418        1.0541620737       -0.0001676810
 H          2.4910249671       -0.4844696354       -0.8892712596
 H          2.4481580408        1.0494489635        0.0057241563
 H          2.4899543584       -0.4933877942        0.8851870329
 H          0.2853602949       -2.1052256167       -0.0003749144
 H         -2.3224991871       -1.2241562226        0.0005130358
 H          0.1729726208        2.0708188125       -0.0002376155
  12
  -17.4778689300000       0.272962710689574      !
 C          2.1078576932        0.0167082480        0.0005303774
 N          0.6705199479       -0.0034092735       -0.0006271582
 C         -0.1203968813       -1.1153588619       -0.0003394623
 C         -1.4088924828       -0.6640919863        0.0003544585
 N         -1.4252941488        0.6964265738        0.0002411617
 C         -0.1653796122        1.0541612320       -0.0003011429
 H          2.4481139362        1.0495075774        0.0025361388
 H          2.4897250509       -0.4903278838        0.8873051222
 H          2.4913724247       -0.4875253617       -0.8871690812
 H          0.2853396243       -2.1052210825       -0.0006295048
 H         -2.3225119326       -1.2241263699        0.0007168357
 H          0.1729682316        2.0708138634       -0.0003058470
  12
  -17.4778517500000       0.268045142260779      !
 C          2.1077601963        0.0167821735        0.0010397706
 N          0.6705559581       -0.0034321388       -0.0002366214
 C         -0.1204196013       -1.1153686464       -0.0017425014
 C         -1.4089314336       -0.6640736325        0.0016140753
 N         -1.4251768892        0.6963825516        0.0001244273
 C         -0.1653284598        1.0541085224       -0.0009217907
 H          2.4895726738       -0.4810068143        0.8931842612
 H          2.4910387559       -0.4965918107       -0.8814473965
 H          2.4483002550        1.0494798371       -0.0075284390
 H          0.2852313849       -2.1052878467       -0.0038705128
 H         -2.3227976941       -1.2237258774        0.0040655202
 H          0.1728191885        2.0708278260       -0.0027198643
  12
  -17.4775054700000       0.185809823786319      !
 C          2.1084488274        0.0245355836        0.0009967442
 N          0.6705497798       -0.0096508872       -0.0013521935
 C         -0.1236026938       -1.1176498304       -0.0003145603
 C         -1.4112642625       -0.6628566026        0.0003216211
 N         -1.4233488538        0.6975919543        0.0006457942
 C         -0.1624992904        1.0517028918       -0.0005665736
 H          2.4713835468        0.5210184093        0.9015617514
 H          2.4891707185       -0.9934036210       -0.0253581859
 H          2.4722997868        0.5677847934       -0.8714246802
 H          0.2764813288       -2.1097809139       -0.0006874685
 H         -2.3265963233       -1.2200431743        0.0012309296
 H          0.1799181688        2.0666873051       -0.0007160683
