  14
    -0.398040 !GC
 C          0.0000000000        0.0000000000        0.0000000000
 C          1.5164091523        0.0000000000        0.0000000000
 C          2.0877297924        1.4046712446        0.0000000000
 C          2.0877517180       -0.8483710391       -1.1194936007
 Br         2.1027991179       -0.8726846290        1.7556512193
 H         -0.3888186347        0.4374199579       -0.9170631235
 H         -0.3240661396       -1.0377447677        0.0553789964
 H         -0.4204173801        0.5420234290        0.8441461631
 H          1.7989320134        1.9067529255       -0.9210681308
 H          1.7079255391        1.9789873138        0.8422472735
 H          3.1739350853        1.3823364156        0.0580124289
 H          3.1741530271       -0.8794951750       -1.0682391304
 H          1.7975005653       -0.4185029266       -2.0760835421
 H          1.7096864162       -1.8670696125       -1.0670488260
  14
    -0.397449 !GC
 C          0.0000000000        0.0000000000        0.0000000000
 C          1.5164258062        0.0000000000        0.0000000000
 C          2.0867151189        1.4050560977        0.0000000000
 C          2.0875887895       -0.8465736553       -1.1210601438
 Br         2.1055670429       -0.8733823142        1.7547198869
 H         -0.3892701932        0.5649574647        0.8441072639
 H         -0.3569911191        0.4593461561       -0.9196683711
 H         -0.3884337872       -1.0146623996        0.0547910377
 H          1.7961161229        1.9081607844       -0.9198886813
 H          1.7082206420        1.9783792534        0.8433731163
 H          3.1729585940        1.3835126249        0.0560125398
 H          1.7452892159       -1.8780236476       -1.0861605015
 H          3.1704134951       -0.8364723426       -1.0140895726
 H          1.8302216736       -0.4310620843       -2.0930786104
  14
    -0.396754 !GC
 C          0.0000000000        0.0000000000        0.0000000000
 C          1.5163994376        0.0000000000        0.0000000000
 C          2.0878370034        1.4046127852        0.0000000000
 C          2.0879625050       -0.8482427600       -1.1195028579
 Br         2.1026969328       -0.8728462137        1.7555688324
 H         -0.3890795009        0.5655534445        0.8439554128
 H         -0.3567580383        0.4588587763       -0.9201024926
 H         -0.3882962151       -1.0148095296        0.0554522325
 H          1.6724063153        1.9229829649        0.8621196989
 H          3.1727506636        1.4175252406        0.0753223079
 H          1.7993231416        1.9414917797       -0.9012640495
 H          3.1744062643       -0.8787546804       -1.0687991096
 H          1.7970631623       -0.4185816184       -2.0759030492
 H          1.7104661822       -1.8670834107       -1.0671326396
  14
    -0.396564 !GC
 C          0.0000000000        0.0000000000        0.0000000000
 C          1.5162771830        0.0000000000        0.0000000000
 C          2.0852280958        1.4056997190        0.0000000000
 C          2.0863765090       -0.8468045136       -1.1214436879
 Br         2.1030846125       -0.8737006962        1.7553952221
 H         -0.3885064239        0.5653086643        0.8443997237
 H         -0.3572776521        0.4591632790       -0.9199144530
 H         -0.3878693273       -1.0150002920        0.0554806174
 H          3.1686495345        1.3174557595        0.0568682706
 H          1.8265477711        1.9290846721       -0.9178593617
 H          1.7392965229        1.9993917574        0.8432271687
 H          3.1730576706       -0.8767526805       -1.0715858081
 H          1.7944578876       -0.4157525338       -2.0771141885
 H          1.7090312617       -1.8659796210       -1.0698780718
  14
    -0.396420 !GC
 C          0.0000000000        0.0000000000        0.0000000000
 C          1.5163855593        0.0000000000        0.0000000000
 C          2.0877062717        1.4046920541        0.0000000000
 C          2.0880963869       -0.8488815544       -1.1189957367
 Br         2.1031487215       -0.8722382303        1.7556246928
 H         -0.3886159356        0.5671886655        0.8429436743
 H         -0.3563922160        0.4574154091       -0.9209437562
 H         -0.3885805939       -1.0146936351        0.0567006978
 H          1.7970996393        1.9078843101       -0.9199413383
 H          1.7095873037        1.9783419015        0.8434936904
 H          3.1741242280        1.3823473839        0.0558777778
 H          1.8327644248       -0.4702888633       -2.1062181816
 H          1.7061202641       -1.8637367605       -1.0273002059
 H          3.1721124538       -0.8758562969       -1.0277039734
  14
    -0.395288 !GC
 C          0.0000000000        0.0000000000        0.0000000000
 C          1.5164028440        0.0000000000        0.0000000000
 C          2.0873530827        1.4048526190        0.0000000000
 C          2.0867377605       -0.8480686925       -1.1201983314
 Br         2.1048293821       -0.8729585765        1.7550600099
 H         -0.3567525251       -1.0253812854        0.0742739630
 H         -0.3566648363        0.5554915194        0.8650518107
 H         -0.4201266847        0.4485213590       -0.8973463398
 H          1.7983417874        1.9070281962       -0.9209538383
 H          1.7074737246        1.9788451522        0.8424586982
 H          3.1734738001        1.3828459342        0.0576856309
 H          3.1729977009       -0.8800928671       -1.0685549893
 H          1.7969528925       -0.4174335182       -2.0765935125
 H          1.7077544760       -1.8664864176       -1.0682254054
  14
    -0.267174 !GC
 C          0.0000000000        0.0000000000        0.0000000000
 C          1.5163854332        0.0000000000        0.0000000000
 C          2.0877336378        1.4045600592        0.0000000000
 C          2.0876667272       -0.8478481489       -1.1198204707
 Br         2.1029055387       -0.8736044802        1.7552774446
 H         -0.4207173632       -1.0000735951        0.0758362578
 H         -0.3243787682        0.5809093405        0.8614353033
 H         -0.3884397277        0.4679909677       -0.9019768890
 H          3.1707313882        1.3135004742        0.0583976753
 H          1.8319043126        1.9287708480       -0.9180498719
 H          1.7420650486        1.9989107385        0.8427397175
 H          1.7981387093       -0.4546035042       -2.0921082620
 H          1.6732491720       -1.8482393942       -1.0122123778
 H          3.1724839030       -0.9146231753       -1.0855798684
  14
    -0.267011 !GC
 C          0.0000000000        0.0000000000        0.0000000000
 C          1.5163923723        0.0000000000        0.0000000000
 C          2.0880594078        1.4042957392        0.0000000000
 C          2.0882381077       -0.8487452236       -1.1188176874
 Br         2.1088948843       -0.8710405382        1.7542509165
 H         -0.3566283645        0.4582126542       -0.9203150685
 H         -0.3892261497       -1.0143301886        0.0571063871
 H         -0.3876997810        0.5674779123        0.8432932376
 H          1.7069877169        1.9439087711        0.8642381523
 H          3.1716650209        1.3472560238        0.0770980856
 H          1.8327365388        1.9621502336       -0.8979432128
 H          1.7430591118       -1.8799248560       -1.0821679274
 H          3.1714510772       -0.8389051561       -1.0105662487
 H          1.8318431202       -0.4340281985       -2.0914998048
  14
    -0.215296 !GC
 C          0.0000000000        0.0000000000        0.0000000000
 C          1.5163999422        0.0000000000        0.0000000000
 C          2.0875732595        1.4047461376        0.0000000000
 C          2.0878615123       -0.8487524055       -1.1191851033
 Br         2.1027210974       -0.8719313364        1.7561269462
 H         -0.3570074423        0.4602208440       -0.9191751930
 H         -0.3888177428       -1.0146584968        0.0541680449
 H         -0.3884034830        0.5648104711        0.8447433334
 H          3.1713494788        1.3484183139        0.0781028304
 H          1.8330936731        1.9620155913       -0.8987744004
 H          1.7046882620        1.9452649121        0.8632742146
 H          1.7978901344       -0.4198898146       -2.0763396161
 H          1.7091375945       -1.8672035633       -1.0662133814
 H          3.1739744117       -0.8804536437       -1.0675109082
  14
    -0.214465 !GC
 C          0.0000000000        0.0000000000        0.0000000000
 C          1.5164094047        0.0000000000        0.0000000000
 C          2.0875841374        1.4048038539        0.0000000000
 C          2.0879160404       -0.8491423838       -1.1189223173
 Br         2.1029327434       -0.8715439688        1.7561035233
 H         -0.3565270555       -1.0254519671        0.0732798535
 H         -0.3562934525        0.5545265085        0.8660174092
 H         -0.4205408586        0.4501961847       -0.8964667474
 H          1.7080148043        1.9785871607        0.8425487238
 H          3.1738479037        1.3825914702        0.0579299284
 H          1.7987520414        1.9070361018       -0.9212256786
 H          1.7089333718       -1.8676118540       -1.0663696055
 H          3.1742806139       -0.8809354702       -1.0665539194
 H          1.7982289732       -0.4195049093       -2.0758901272
  14
    -0.214089 !GC
 C          0.0000000000        0.0000000000        0.0000000000
 C          1.5163903536        0.0000000000        0.0000000000
 C          2.0878652351        1.4044047306        0.0000000000
 C          2.0870905969       -0.8478743632       -1.1200348642
 Br         2.1113270989       -0.8713668288        1.7533881323
 H         -0.3569338010        0.4596591164       -0.9196015801
 H         -0.3891789539       -1.0144717921        0.0558556530
 H         -0.3872804926        0.5664840864        0.8441738119
 H          3.1706280908        1.3129751228        0.0567225121
 H          1.8310661358        1.9278105477       -0.9181744226
 H          1.7432143515        1.9984673133        0.8431540949
 H          1.7417162738       -1.8790172898       -1.0835336202
 H          3.1704477588       -0.8382257139       -1.0129310107
 H          1.8295568696       -0.4325223735       -2.0921690522
  14
    -0.213089 !GC
 C          0.0000000000        0.0000000000        0.0000000000
 C          1.5164096570        0.0000000000        0.0000000000
 C          2.0874660352        1.4048045750        0.0000000000
 C          2.0876507183       -0.8488806743       -1.1191757762
 Br         2.1028232865       -0.8717696987        1.7562092479
 H         -0.3567430763       -1.0254564944        0.0730791674
 H         -0.3565003529        0.5541928726        0.8660291423
 H         -0.4205196760        0.4499885472       -0.8964198964
 H          1.7067344399        1.9787616727        0.8418887522
 H          3.1736216397        1.3826216957        0.0589182689
 H          1.7994787587        1.9066638699       -0.9214957636
 H          1.7981677433       -0.4194217077       -2.0762115822
 H          1.7083898872       -1.8672392796       -1.0667190946
 H          3.1738077902       -0.8808808579       -1.0671810448
  14
    -0.212707 !GC
 C          0.0000000000        0.0000000000        0.0000000000
 C          1.5164260585        0.0000000000        0.0000000000
 C          2.0865693713        1.4051885996        0.0000000000
 C          2.0877531180       -0.8473460692       -1.1204901165
 Br         2.1057005503       -0.8722421026        1.7551724823
 H         -0.3569885805        0.4604808413       -0.9188329934
 H         -0.3888439614       -1.0146749748        0.0538297663
 H         -0.3885578963        0.5641033735        0.8451589997
 H          1.7085698066        1.9785306380        0.8434953426
 H          3.1728546488        1.3837457485        0.0557470856
 H          1.7957390234        1.9078894330       -0.9202432744
 H          1.8309757976       -0.4692339437       -2.1069884711
 H          1.7058106333       -1.8620881713       -1.0292920670
 H          3.1720421156       -0.8749073305       -1.0303281502
  14
    -0.212283 !GC
 C          0.0000000000        0.0000000000        0.0000000000
 C          1.5163853070        0.0000000000        0.0000000000
 C          2.0878519057        1.4045594299        0.0000000000
 C          2.0879320642       -0.8481101755       -1.1195668598
 Br         2.1030151126       -0.8733786380        1.7551719509
 H         -0.4205024437       -1.0000819493        0.0760330581
 H         -0.3241666969        0.5812416007        0.8614086636
 H         -0.3884564683        0.4682014277       -0.9020205471
 H          3.1709452227        1.3136389267        0.0570738947
 H          1.8312534444        1.9292109348       -0.9176492952
 H          1.7428750962        1.9986772870        0.8434031797
 H          1.7434997862       -1.8793293865       -1.0837601865
 H          3.1709147180       -0.8386076748       -1.0125219260
 H          1.8305987569       -0.4334112799       -2.0917259865
  14
    -0.000371 !GC
 C          0.0000000000        0.0000000000        0.0000000000
 C          1.5163969143        0.0000000000        0.0000000000
 C          2.0880962387        1.4043558807        0.0000000000
 C          2.0882687032       -0.8489476925       -1.1187588228
 Br         2.1094317000       -0.8699564131        1.7544359545
 H         -0.3567083177        0.4605500122       -0.9191548336
 H         -0.3888171239       -1.0148465436        0.0545561368
 H         -0.3876957224        0.5648788460        0.8452214890
 H          1.7972874105        1.9070460710       -0.9197878524
 H          1.7090618912        1.9774104912        0.8433213054
 H          3.1742824825        1.3818285934        0.0560614713
 H          1.8318935131       -0.4705990371       -2.1061857968
 H          1.7063910068       -1.8640968142       -1.0255051519
 H          3.1725466492       -0.8756213629       -1.0276219923
  14
    -0.000346 !GC
 C          0.0000000000        0.0000000000        0.0000000000
 C          1.5163774847        0.0000000000        0.0000000000
 C          2.0885855371        1.4042693826        0.0000000000
 C          2.0877924636       -0.8484597897       -1.1192331589
 Br         2.1030707190       -0.8725372535        1.7559344733
 H         -0.3568729287       -1.0252087239        0.0755491078
 H         -0.3570520711        0.5570247360        0.8643867025
 H         -0.4195846034        0.4469360521       -0.8983481931
 H          1.7097626621        1.9780838637        0.8428528008
 H          3.1747327263        1.3805808784        0.0573696536
 H          1.8000977042        1.9072817584       -0.9208012535
 H          3.1737282398       -0.8813421934       -1.0677058784
 H          1.7984478373       -0.4177799300       -2.0753674410
 H          1.7082699304       -1.8663157739       -1.0684558452
  14
    -0.000330 !GC
 C          0.0000000000        0.0000000000        0.0000000000
 C          1.5162708747        0.0000000000        0.0000000000
 C          2.0848510621        1.4058804687        0.0000000000
 C          2.0853621424       -0.8465001823       -1.1221473577
 Br         2.1051151326       -0.8739741945        1.7548034581
 H         -0.3564366036        0.4596588089       -0.9197084274
 H         -0.3894963845       -1.0144156117        0.0554062073
 H         -0.3875782376        0.5664739993        0.8440509147
 H          3.1683197218        1.3180631679        0.0566915932
 H          1.8257203930        1.9291323271       -0.9178309423
 H          1.7390602841        1.9993492153        0.8433021402
 H          3.1719034492       -0.8773482337       -1.0719009358
 H          1.7939094661       -0.4146805340       -2.0776223969
 H          1.7070988286       -1.8653947582       -1.0710529909
  14
    -0.000308 !GC
 C          0.0000000000        0.0000000000        0.0000000000
 C          1.5163966619        0.0000000000        0.0000000000
 C          2.0882418118        1.4042232184        0.0000000000
 C          2.0881043860       -0.8481764860       -1.1193300076
 Br         2.1092984356       -0.8710961983        1.7539850527
 H         -0.3890002382        0.5652075667        0.8443338440
 H         -0.3569577084        0.4587912052       -0.9201790290
 H         -0.3875715826       -1.0151111642        0.0554264774
 H          3.1709560154        1.3123672645        0.0568991829
 H          1.8318932061        1.9277608016       -0.9182024687
 H          1.7434506001        1.9985094063        0.8430790936
 H          1.7441585988       -1.8798860619       -1.0824727032
 H          3.1713990268       -0.8371628880       -1.0118057683
 H          1.8305635147       -0.4338170603       -2.0918479573
  14
    -0.000294 !GC
 C          0.0000000000        0.0000000000        0.0000000000
 C          1.5162862670        0.0000000000        0.0000000000
 C          2.0843894811        1.4059932647        0.0000000000
 C          2.0866535206       -0.8465140587       -1.1215649474
 Br         2.1038186498       -0.8732022441        1.7555352017
 H         -0.3882298279       -1.0146707113        0.0565746844
 H         -0.3894753450        0.5673604196        0.8427867302
 H         -0.3558411222        0.4571288155       -0.9211891001
 H          1.7925806078        1.9092194308       -0.9197303843
 H          1.7051509682        1.9775249387        0.8442407022
 H          3.1707076896        1.3865183784        0.0555663352
 H          1.7081599000       -1.8653644765       -1.0697662718
 H          3.1730209018       -0.8780874510       -1.0708681447
 H          1.7956110325       -0.4155473915       -2.0775271651
  14
    -0.000292 !GC
 C          0.0000000000        0.0000000000        0.0000000000
 C          1.5164326192        0.0000000000        0.0000000000
 C          2.0873651048        1.4047849311        0.0000000000
 C          2.0875273787       -0.8470715436       -1.1206168347
 Br         2.1028760508       -0.8730552300        1.7557750080
 H         -0.3885849152        0.5642427544        0.8451727419
 H         -0.3566009869        0.4606098712       -0.9193016611
 H         -0.3883812565       -1.0148303719        0.0535361766
 H          1.7077113871        1.9778353286        0.8430171914
 H          3.1736209193        1.3826042890        0.0577591993
 H          1.7980860468        1.9076550644       -0.9207966723
 H          1.7965953043       -0.4165889639       -2.0768718079
 H          1.7089875411       -1.8656760847       -1.0687882213
 H          3.1738536367       -0.8782391193       -1.0698004996
  14
    -0.000209 !GC
 C          0.0000000000        0.0000000000        0.0000000000
 C          1.5164054935        0.0000000000        0.0000000000
 C          2.0869806722        1.4047794859        0.0000000000
 C          2.0880422945       -0.8488462178       -1.1190283885
 Br         2.1092905545       -0.8701082423        1.7543385764
 H         -0.3888854506       -1.0145935003        0.0546791168
 H         -0.3885594116        0.5656658023        0.8438972583
 H         -0.3562602252        0.4600263612       -0.9195938837
 H          3.1697630194        1.3139168838        0.0576413427
 H          1.8306881108        1.9283863872       -0.9182153511
 H          1.7413342629        1.9984152487        0.8430019390
 H          3.1749865881       -0.8781082491       -1.0671423176
 H          1.7966079400       -0.4194531639       -2.0761051928
 H          1.7105809084       -1.8682374414       -1.0652900530
  14
    -0.000206 !GC
 C          0.0000000000        0.0000000000        0.0000000000
 C          1.5162728934        0.0000000000        0.0000000000
 C          2.0850455045        1.4057718727        0.0000000000
 C          2.0865103255       -0.8473745815       -1.1209321728
 Br         2.1026802650       -0.8736445284        1.7556601160
 H         -0.3561311886        0.4582121140       -0.9204217835
 H         -0.3895435612       -1.0142745475        0.0566569029
 H         -0.3879974767        0.5674675890        0.8431702575
 H          1.7033988828        1.9458436639        0.8642056767
 H          3.1690405354        1.3508323728        0.0758051743
 H          1.8284515538        1.9633075805       -0.8979634809
 H          3.1729872304       -0.8783844107       -1.0698800628
 H          1.7959389503       -0.4162499165       -2.0769571253
 H          1.7080437133       -1.8661553214       -1.0695310005
  14
    -0.000192 !GC
 C          0.0000000000        0.0000000000        0.0000000000
 C          1.5163006498        0.0000000000        0.0000000000
 C          2.0848631998        1.4058127505        0.0000000000
 C          2.0861520522       -0.8455023543       -1.1225649497
 Br         2.1031615863       -0.8740713866        1.7555187966
 H         -0.3882726519       -1.0149119947        0.0537045135
 H         -0.3894387051        0.5653661655        0.8443108790
 H         -0.3554191693        0.4598283779       -0.9200246716
 H          1.7927035899        1.9087420657       -0.9197133382
 H          1.7054431513        1.9774065297        0.8443596377
 H          3.1713559460        1.3863695092        0.0552022531
 H          1.7928541035       -0.4137151439       -2.0777149968
 H          1.7080188386       -1.8644019359       -1.0713356625
 H          3.1727311495       -0.8763595420       -1.0736985433
  14
    -0.000168 !GC
 C          0.0000000000        0.0000000000        0.0000000000
 C          1.5164182363        0.0000000000        0.0000000000
 C          2.0868917129        1.4049662197        0.0000000000
 C          2.0880286417       -0.8480807562       -1.1196150924
 Br         2.1035330583       -0.8721862237        1.7557910496
 H         -0.3885420649        0.5665872660        0.8435001970
 H         -0.3566425624        0.4582737505       -0.9202980910
 H         -0.3887976690       -1.0144990568        0.0564229350
 H          1.7071060804        1.9784661987        0.8427262302
 H          3.1729830356        1.3834186359        0.0575461697
 H          1.7976025670        1.9072214841       -0.9209456781
 H          1.7090461361       -1.8665616484       -1.0679376022
 H          3.1742035548       -0.8801177554       -1.0673932452
 H          1.7985562198       -0.4179271468       -2.0762443496
  14
    -0.000157 !GC
 C          0.0000000000        0.0000000000        0.0000000000
 C          1.5162774354        0.0000000000        0.0000000000
 C          2.0850822081        1.4058320825        0.0000000000
 C          2.0865408302       -0.8475772642       -1.1208736022
 Br         2.1032182457       -0.8725601346        1.7558481576
 H         -0.3562111342        0.4605497598       -0.9192615841
 H         -0.3891346306       -1.0147899011        0.0541066374
 H         -0.3879934626        0.5648689221        0.8450984727
 H          1.7937237843        1.9091953604       -0.9197229243
 H          1.7056695058        1.9776387527        0.8442415449
 H          3.1714757848        1.3857499751        0.0559307729
 H          1.7080470692       -1.8664161639       -1.0681995070
 H          3.1730979403       -0.8789081137       -1.0700307080
 H          1.7952834963       -0.4171261640       -2.0771744029
  14
    -0.000144 !GC
 C          0.0000000000        0.0000000000        0.0000000000
 C          1.5164034749        0.0000000000        0.0000000000
 C          2.0899373448        1.4036005707        0.0000000000
 C          2.0885688096       -0.8503866200       -1.1173631895
 Br         2.1100167902       -0.8694148652        1.7542895179
 H         -0.3890936695        0.5668905432        0.8432505826
 H         -0.3564683657        0.4567760907       -0.9212404974
 H         -0.3875266301       -1.0149489042        0.0572987665
 H          3.1724513983        1.3106456339        0.0575485763
 H          1.8348654743        1.9273068902       -0.9182959253
 H          1.7456518457        1.9990437883        0.8422782608
 H          1.8336789343       -0.4728508864       -2.1054200238
 H          1.7061266121       -1.8650790036       -1.0238851084
 H          3.1725327126       -0.8778400517       -1.0251929076
