  14
  -17.2521642300000       3.703841604510730E-002 !
 C         -1.4773761728       -1.4057696628        0.3665423608
 C         -1.0426980448       -0.0000190007        0.0000177316
 C         -1.4772673443        1.0203418262        1.0341450466
 C         -1.4773924844        0.3854745297       -1.4006381220
 Br         1.0038017672       -0.0000081529       -0.0000117706
 H         -1.1076030216       -1.6826113869        1.3514302506
 H         -2.5644460873       -1.4511087654        0.3781856388
 H         -1.1073700187       -2.1282865440       -0.3576492228
 H         -1.1069122867        0.7546868019        2.0218912526
 H         -1.1077115418        2.0117088636        0.7811679977
 H         -2.5643310664        1.0529496443        1.0678934848
 H         -2.5644674332        0.3984528981       -1.4456122703
 H         -1.1079514482       -0.3292200299       -2.1328188779
 H         -1.1070713408        1.3737448468       -1.6643537361
  14
  -17.2521642200000       3.703802410854064E-002 !
 C         -1.4774062201       -1.4057707579        0.3665547029
 C         -1.0427017847       -0.0000343466       -0.0000076203
 C         -1.4772561725        1.0203064615        1.0341453404
 C         -1.4774096482        0.3854676969       -1.4006649806
 Br         1.0038089727        0.0000021208       -0.0000051740
 H         -1.1076324201       -1.6826177722        1.3514413598
 H         -2.5644758149       -1.4510931318        0.3782021764
 H         -1.1074135885       -2.1282927561       -0.3576344731
 H         -2.5643197093        1.0529217144        1.0679003117
 H         -1.1068802740        0.7546424173        2.0218831309
 H         -1.1076882116        2.0116627905        0.7811544261
 H         -1.1079837653       -0.3292211201       -2.1328582087
 H         -1.1070849916        1.3737331797       -1.6643781943
 H         -2.5644826603        0.3984653096       -1.4456273712
  14
  -17.2521642200000       3.703802410854064E-002 !
 C         -1.4773700246       -1.4057676366        0.3665328203
 C         -1.0427028639       -0.0000159685        0.0000152598
 C         -1.4772535614        1.0203410207        1.0341469967
 C         -1.4773882018        0.3854641375       -1.4006405501
 Br         1.0037966331       -0.0000070082       -0.0000095058
 H         -1.1075919360       -1.6826104442        1.3514168978
 H         -2.5644405181       -1.4511222838        0.3781785528
 H         -1.1073575090       -2.1282878980       -0.3576510173
 H         -2.5643203780        1.0529636928        1.0679102345
 H         -1.1068686163        0.7546874690        2.0218845990
 H         -1.1076876566        2.0116985570        0.7811538947
 H         -2.5644694440        0.3984658293       -1.4456396297
 H         -1.1079139034       -0.3292205523       -2.1328163175
 H         -1.1070383870        1.3737243674       -1.6643333962
  14
  -17.2521642200000       3.703802410854064E-002 !
 C         -1.4773636774       -1.4057722481        0.3665113274
 C         -1.0426957537       -0.0000112673        0.0000036256
 C         -1.4772447092        1.0203562173        1.0341411236
 C         -1.4774120188        0.3854609673       -1.4006554834
 Br         1.0037987384       -0.0000091423        0.0000002119
 H         -1.1075793316       -1.6826111295        1.3513950547
 H         -2.5644339430       -1.4511155078        0.3781658487
 H         -1.1073620183       -2.1282893479       -0.3576844746
 H         -1.1068723538        0.7547128374        2.0218850831
 H         -1.1077021062        2.0117266630        0.7811559590
 H         -2.5643086736        1.0529553039        1.0679089721
 H         -1.1071053404        1.3737323230       -1.6643774683
 H         -2.5644866813        0.3984388691       -1.4456203234
 H         -1.1079868328       -0.3292264699       -2.1328525224
  14
  -17.2521642100000       3.703763217612142E-002 !
 C         -1.4774091458       -1.4057710155        0.3665326360
 C         -1.0427071162       -0.0000276295        0.0000082918
 C         -1.4772427036        1.0203155256        1.0341774849
 C         -1.4773897100        0.3854294322       -1.4006674310
 Br         1.0038031268        0.0000070512       -0.0000095273
 H         -2.5644901812       -1.4511039164        0.3781707388
 H         -1.1073865721       -2.1282663497       -0.3576643338
 H         -1.1076115949       -1.6826093347        1.3514138471
 H         -1.1068715778        0.7546475047        2.0219161950
 H         -1.1076546175        2.0116731857        0.7812080360
 H         -2.5643100384        1.0529254812        1.0679496601
 H         -1.1079533781       -0.3292838761       -2.1328431417
 H         -1.1070499869        1.3736999962       -1.6643797909
 H         -2.5644697559        0.3983980726       -1.4456234501
  14
  -17.2521642100000       3.703763217612142E-002 !
 C         -1.4773576736       -1.4057660671        0.3665398118
 C         -1.0427106440       -0.0000107882        0.0000078307
 C         -1.4772807616        1.0203595002        1.0341214255
 C         -1.4774158510        0.3855023370       -1.4006350992
 Br         1.0038070326       -0.0000180916       -0.0000061507
 H         -2.5644285289       -1.4511152531        0.3781840109
 H         -1.1073389538       -2.1282733333       -0.3576571029
 H         -1.1075726683       -1.6825920624        1.3514300292
 H         -1.1077526407        2.0117388886        0.7811337118
 H         -2.5643443915        1.0529330061        1.0678825154
 H         -1.1069117720        0.7547023586        2.0218603712
 H         -1.1079677811       -0.3292043826       -2.1327957582
 H         -1.1071040394        1.3737828081       -1.6643567174
 H         -2.5644928574        0.3984495112       -1.4455982434
  14
  -17.2521642100000       3.703763217612142E-002 !
 C         -1.4774375719       -1.4058239165        0.3665144436
 C         -1.0427099913       -0.0000586439       -0.0000419473
 C         -1.4771955887        1.0203115401        1.0341550715
 C         -1.4774475627        0.3854277500       -1.4007293341
 Br         1.0038146699        0.0000212614        0.0000179193
 H         -2.5644967885       -1.4511656598        0.3781979200
 H         -1.1075177729       -2.1284058292       -0.3576461564
 H         -1.1076902226       -1.6827249040        1.3513866427
 H         -2.5642500082        1.0529868193        1.0679449364
 H         -1.1068375224        0.7547007089        2.0219174632
 H         -1.1076452523        2.0116688210        0.7811648833
 H         -1.1081055096       -0.3292121395       -2.1330163228
 H         -1.1071567389        1.3736840412       -1.6644664881
 H         -2.5645120100        0.3984898854       -1.4456907517
  14
  -17.2521642100000       3.703763217612142E-002 !
 C         -1.4773803063       -1.4057808508        0.3665488655
 C         -1.0427058080       -0.0000282441        0.0000180182
 C         -1.4772714541        1.0203452694        1.0341357929
 C         -1.4773951494        0.3854861219       -1.4006334279
 Br         1.0038051185       -0.0000073832       -0.0000122208
 H         -2.5644494555       -1.4511010608        0.3781824982
 H         -1.1073779946       -2.1283034228       -0.3576394932
 H         -1.1076178468       -1.6826209723        1.3514421972
 H         -1.1077186716        2.0117148986        0.7811602727
 H         -2.5643376382        1.0529234082        1.0678688627
 H         -1.1069061870        0.7547003951        2.0218803724
 H         -2.5644707653        0.3984556188       -1.4455937768
 H         -1.1079548537       -0.3292088958       -2.1328128873
 H         -1.1070740113        1.3737596379       -1.6643444307
  14
  -17.2521642100000       3.703763217612142E-002 !
 C         -1.4773548682       -1.4057564275        0.3665541590
 C         -1.0426940642       -0.0000080315        0.0000081095
 C         -1.4772613889        1.0203344716        1.0341484124
 C         -1.4773831760        0.3854850897       -1.4006495210
 Br         1.0037933225       -0.0000129299       -0.0000108770
 H         -1.1075739091       -1.6825919688        1.3514415806
 H         -2.5644252639       -1.4511017319        0.3781970767
 H         -1.1073370573       -2.1282636862       -0.3576391419
 H         -1.1076931822        2.0116903214        0.7811542303
 H         -2.5643286366        1.0529428194        1.0679002362
 H         -1.1068810203        0.7546773417        2.0218869426
 H         -1.1079193940       -0.3292016444       -2.1328281365
 H         -1.1070583377        1.3737555109       -1.6643517624
 H         -2.5644611858        0.3984614387       -1.4456275537
  14
  -17.2521642100000       3.703763217612142E-002 !
 C         -1.4773466484       -1.4057576429        0.3665955418
 C         -1.0426955664       -0.0000138673        0.0000119354
 C         -1.4772693746        1.0203210847        1.0341536291
 C         -1.4773538901        0.3855123270       -1.4006484504
 Br         1.0037885319       -0.0000139366       -0.0000203060
 H         -1.1073146217       -2.1282642654       -0.3575784049
 H         -1.1075750504       -1.6826174659        1.3514777759
 H         -2.5644164852       -1.4511496683        0.3782287781
 H         -1.1069055603        0.7546748748        2.0219016087
 H         -1.1077331778        2.0116867673        0.7811681344
 H         -2.5643315596        1.0529400867        1.0679033438
 H         -2.5644278815        0.3984856607       -1.4456518367
 H         -1.1078865433       -0.3291747565       -2.1328197344
 H         -1.1070411964        1.3737859510       -1.6643623450
  14
  -17.2521642100000       3.703763217612142E-002 !
 C         -1.4773866509       -1.4057608299        0.3665472139
 C         -1.0427082550       -0.0000102954        0.0000374998
 C         -1.4772760880        1.0203355384        1.0341790954
 C         -1.4773688039        0.3854519709       -1.4006370492
 Br         1.0038025233       -0.0000057514       -0.0000222058
 H         -2.5644558714       -1.4510910260        0.3781795625
 H         -1.1073744295       -2.1282824860       -0.3576399429
 H         -1.1076211127       -1.6825870669        1.3514419206
 H         -1.1069166101        0.7546797341        2.0219256531
 H         -1.1077202532        2.0117030330        0.7811997153
 H         -2.5643440051        1.0529307866        1.0679212136
 H         -1.1070477851        1.3737253343       -1.6643440293
 H         -2.5644415341        0.3984305795       -1.4456145033
 H         -1.1079340435       -0.3292481817       -2.1328197360
  14
  -17.2521642000000       3.703724024784958E-002 !
 C         -1.4773577354       -1.4058042257        0.3665231277
 C         -1.0427320747       -0.0000298101       -0.0000250058
 C         -1.4772036343        1.0203471568        1.0341315871
 C         -1.4774102821        0.3854742612       -1.4006902263
 Br         1.0037955956       -0.0000010840        0.0000102379
 H         -1.1074064452       -2.1283565304       -0.3576626103
 H         -1.1076078501       -1.6826652540        1.3514140386
 H         -2.5644125215       -1.4511830772        0.3782003085
 H         -1.1068276967        0.7547092073        2.0218770022
 H         -1.1076500369        2.0117074458        0.7811297709
 H         -2.5642631830        1.0529918776        1.0679306202
 H         -1.1079996062       -0.3292005858       -2.1329082458
 H         -1.1070847892        1.3737394564       -1.6643983604
 H         -2.5644841567        0.3984937485       -1.4456729905
  14
  -17.2521642000000       3.703724024784958E-002 !
 C         -1.4773768827       -1.4057777835        0.3665358023
 C         -1.0426996699       -0.0000209804        0.0000152291
 C         -1.4772605596        1.0203477586        1.0341465631
 C         -1.4773984301        0.3854716122       -1.4006472597
 Br         1.0038026939       -0.0000069114       -0.0000083762
 H         -1.1073683755       -2.1282970336       -0.3576530988
 H         -1.1076130848       -1.6826272374        1.3514255355
 H         -2.5644466645       -1.4511150602        0.3781742905
 H         -2.5643218664        1.0529403693        1.0679030195
 H         -1.1068981184        0.7547044724        2.0218947155
 H         -1.1077268248        2.0117215583        0.7811594479
 H         -1.1079710566       -0.3292160579       -2.1328414991
 H         -1.1071047683        1.3737472102       -1.6643807119
 H         -2.5644691231        0.3984441170       -1.4456174781
  14
  -17.2521642000000       3.703724024784958E-002 !
 C         -1.4773647620       -1.4057745331        0.3665427368
 C         -1.0427003664       -0.0000191455        0.0000135004
 C         -1.4772504779        1.0203427650        1.0341523039
 C         -1.4773828452        0.3854730916       -1.4006528482
 Br         1.0037946818       -0.0000072409       -0.0000100015
 H         -1.1073497171       -2.1282931660       -0.3576460349
 H         -1.1075783503       -1.6825982523        1.3514271817
 H         -2.5644355502       -1.4511208631        0.3782054331
 H         -2.5643137549        1.0529477049        1.0679093430
 H         -1.1068886833        0.7546824735        2.0218944411
 H         -1.1076965200        2.0117118213        0.7811771151
 H         -2.5644593526        0.3984456332       -1.4456324727
 H         -1.1079361910       -0.3292144447       -2.1328410152
 H         -1.1070685829        1.3737488296       -1.6643647732
  14
  -17.2521642000000       3.703724024784958E-002 !
 C         -1.4773203115       -1.4057597036        0.3664970910
 C         -1.0426948152        0.0000082932        0.0000157661
 C         -1.4772503373        1.0203861658        1.0341217689
 C         -1.4774012036        0.3854772666       -1.4006231205
 Br         1.0037874881       -0.0000224971       -0.0000018871
 H         -2.5643916550       -1.4511245525        0.3781555120
 H         -1.1072792190       -2.1282612464       -0.3576975685
 H         -1.1075173619       -1.6825673237        1.3513778531
 H         -2.5643148042        1.0529609347        1.0678684922
 H         -1.1068735115        0.7547340052        2.0218661493
 H         -1.1077182992        2.0117567330        0.7811027290
 H         -1.1070487871        1.3737479595       -1.6643048150
 H         -2.5644881148        0.3984337752       -1.4455917865
 H         -1.1079034194       -0.3292317177       -2.1327640700
  14
  -17.2521641900000       3.703684832372509E-002 !
 C         -1.4774037784       -1.4057561615        0.3663962680
 C         -1.0427622841        0.0000095061       -0.0000302562
 C         -1.4771599639        1.0203434281        1.0342125082
 C         -1.4774524651        0.3853103177       -1.4007356632
 Br         1.0038060443        0.0000142519        0.0000277771
 H         -1.1074014114       -2.1282505120       -0.3578249398
 H         -1.1075501219       -1.6825577094        1.3512557587
 H         -2.5644745468       -1.4511051442        0.3780966444
 H         -1.1076019903        2.0116997803        0.7812204738
 H         -2.5642137353        1.0529918794        1.0680186219
 H         -1.1067720488        0.7546900471        2.0219519052
 H         -2.5645265427        0.3983346219       -1.4456879591
 H         -1.1080304874       -0.3293868701       -2.1329384146
 H         -1.1071028041        1.3735612189       -1.6644215604
  14
  -17.2521641900000       3.703684832372509E-002 !
 C         -1.4773767278       -1.4057590910        0.3664961811
 C         -1.0426605702       -0.0000075005        0.0000343546
 C         -1.4772467001        1.0203545471        1.0341759468
 C         -1.4773815853        0.3854175569       -1.4006371301
 Br         1.0037916604       -0.0000038808       -0.0000117636
 H         -1.1075711982       -1.6825804986        1.3513757562
 H         -2.5644671577       -1.4510982063        0.3781400722
 H         -1.1073237252       -2.1282630304       -0.3576976288
 H         -2.5643062091        1.0529011855        1.0679000886
 H         -1.1069468116        0.7547135092        2.0219522157
 H         -1.1077495380        2.0117611982        0.7812112493
 H         -1.1071003427        1.3737067049       -1.6643624474
 H         -2.5644578403        0.3983775666       -1.4455755949
 H         -1.1079560282       -0.3292764719       -2.1328375755
  14
  -17.2521641900000       3.703684832372509E-002 !
 C         -1.4773838149       -1.4057491890        0.3665625607
 C         -1.0426980434       -0.0000281893       -0.0000010170
 C         -1.4772603309        1.0203023387        1.0341373378
 C         -1.4773912741        0.3854783873       -1.4006445367
 Br         1.0038001290       -0.0000038502       -0.0000099177
 H         -1.1073466760       -2.1282327582       -0.3576446766
 H         -1.1075815535       -1.6825646022        1.3514518639
 H         -2.5644613642       -1.4510800884        0.3782002326
 H         -1.1076878838        2.0116572944        0.7811370691
 H         -2.5643287945        1.0528983202        1.0678939618
 H         -1.1068708897        0.7546296945        2.0218672272
 H         -1.1079390292       -0.3292350019       -2.1327998256
 H         -1.1070546841        1.3737499635       -1.6643568780
 H         -2.5644704503        0.3984425039       -1.4456103347
  14
  -17.2521641900000       3.703684832372509E-002 !
 C         -1.4773192342       -1.4057428586        0.3665251636
 C         -1.0426940982        0.0000061258       -0.0000002393
 C         -1.4772445272        1.0203527281        1.0341278279
 C         -1.4773924457        0.3854862074       -1.4006429579
 Br         1.0037835975       -0.0000209116       -0.0000018371
 H         -1.1072690338       -2.1282234273       -0.3576839285
 H         -1.1074971794       -1.6825426047        1.3514093443
 H         -2.5643952199       -1.4511034263        0.3781766560
 H         -1.1076729634        2.0117120214        0.7811274150
 H         -2.5643159366        1.0529379926        1.0678993535
 H         -1.1068371389        0.7546753771        2.0218489861
 H         -1.1070459483        1.3737557612       -1.6643377907
 H         -2.5644764576        0.3984460436       -1.4456163484
 H         -1.1079118441       -0.3292178478       -2.1327947659
  14
  -17.2521641800000       3.703645640388713E-002 !
 C         -1.4776595690       -1.4056979478        0.3666001377
 C         -1.0426839277       -0.0000137965        0.0001824534
 C         -1.4776001621        1.0202954240        1.0342274911
 C         -1.4774512985        0.3854088399       -1.4004632426
 Br         1.0039297707       -0.0000011135       -0.0000947301
 H         -1.1080101821       -1.6825584519        1.3515249806
 H         -2.5647450682       -1.4509245014        0.3781167917
 H         -1.1076248817       -2.1282249148       -0.3575664079
 H         -1.1073759770        0.7546543465        2.0220233055
 H         -1.1080573470        2.0116806521        0.7813119199
 H         -2.5646796768        1.0528239900        1.0677993928
 H         -1.1079692065       -0.3293000603       -2.1326099887
 H         -1.1071398145        1.3736862888       -1.6641694489
 H         -2.5645339539        0.3983400627       -1.4454371133
  14
  -17.2521641800000       3.703645640388713E-002 !
 C         -1.4773660712       -1.4057343436        0.3665559256
 C         -1.0426716333       -0.0000010365       -0.0000068884
 C         -1.4772505652        1.0203001956        1.0341493266
 C         -1.4773834713        0.3854677547       -1.4006534668
 Br         1.0037860726       -0.0000073973       -0.0000084872
 H         -1.1073790045       -2.1282363473       -0.3576422278
 H         -1.1076055859       -1.6825638202        1.3514433913
 H         -2.5644063325       -1.4511490029        0.3782216959
 H         -2.5643366740        1.0529579163        1.0679245530
 H         -1.1067887380        0.7546279789        2.0218526188
 H         -1.1075722038        2.0115958317        0.7811132479
 H         -1.1069502494        1.3737063851       -1.6642989703
 H         -2.5644792568        0.3984740482       -1.4456823334
 H         -1.1078444601       -0.3292146860       -2.1327941563
  14
  -17.2521641800000       3.703645640388713E-002 !
 C         -1.4772152813       -1.4057456439        0.3665282091
 C         -1.0426444711       -0.0000797911       -0.0000888669
 C         -1.4767970042        1.0201453482        1.0342467954
 C         -1.4770786154        0.3852895039       -1.4007910293
 Br         1.0036123847        0.0000746853        0.0000155309
 H         -2.5643082542       -1.4509438511        0.3780896593
 H         -1.1070933372       -2.1281349320       -0.3577106950
 H         -1.1074071948       -1.6825530584        1.3514366754
 H         -2.5638614968        1.0525931545        1.0678276756
 H         -1.1065028759        0.7542928032        2.0219598236
 H         -1.1072201282        2.0115429515        0.7814522165
 H         -2.5641912443        0.3980082407       -1.4455754436
 H         -1.1075038907       -0.3295862541       -2.1327336127
 H         -1.1066630226        1.3735145706       -1.6647275943
  14
  -17.2521641800000       3.703645640388713E-002 !
 C         -1.4773634949       -1.4057564902        0.3665239618
 C         -1.0426750956       -0.0000078846        0.0000259141
 C         -1.4772571935        1.0203468384        1.0341568668
 C         -1.4773805213        0.3854533274       -1.4006334957
 Br         1.0037911709       -0.0000097144       -0.0000125799
 H         -1.1075645484       -1.6825778349        1.3514075173
 H         -2.5644391010       -1.4511012967        0.3781716265
 H         -1.1073362663       -2.1282599810       -0.3576735152
 H         -1.1077061334        2.0117116658        0.7811741647
 H         -2.5643218590        1.0529547270        1.0679017532
 H         -1.1069011787        0.7547025070        2.0219060423
 H         -1.1070589506        1.3737243710       -1.6643383734
 H         -2.5644576674        0.3984286606       -1.4456126727
 H         -1.1079265727       -0.3292392063       -2.1328120987
  14
  -17.2521641700000       3.703606448805719E-002 !
 C         -1.4774047908       -1.4058198887        0.3664742828
 C         -1.0427004148       -0.0000663258       -0.0000556327
 C         -1.4771674417        1.0203287858        1.0340934237
 C         -1.4774688809        0.3854374869       -1.4006978991
 Br         1.0038030316        0.0000167100        0.0000326277
 H         -1.1076083339       -1.6826663427        1.3513494212
 H         -2.5644735738       -1.4511355839        0.3781569194
 H         -1.1074440548       -2.1283581464       -0.3577201160
 H         -1.1075974013        2.0116775336        0.7810777996
 H         -2.5642246162        1.0529847558        1.0679028885
 H         -1.1067675027        0.7546848064        2.0218263840
 H         -2.5645432277        0.3984648280       -1.4456336598
 H         -1.1080805780       -0.3292419338       -2.1329190032
 H         -1.1071360378        1.3736946572       -1.6644128502
  14
  -17.2521641500000       3.703528066883889E-002 !
 C         -1.4773648696       -1.4057442894        0.3665396720
 C         -1.0426702857       -0.0000186324        0.0000128626
 C         -1.4772549350        1.0203228530        1.0341389125
 C         -1.4773817037        0.3854664808       -1.4006292182
 Br         1.0037892883       -0.0000081412       -0.0000111376
 H         -1.1073087845       -2.1282238019       -0.3576664808
 H         -1.1075459940       -1.6825400856        1.3514255661
 H         -2.5644490363       -1.4510618968        0.3781770087
 H         -1.1068740263        0.7546472684        2.0218694955
 H         -1.1076979655        2.0116884593        0.7811503430
 H         -2.5643221604        1.0529033670        1.0678911464
 H         -1.1070437157        1.3737378473       -1.6643325634
 H         -2.5644627600        0.3984246710       -1.4455948967
 H         -1.1079123556       -0.3292451725       -2.1327782208
  14
  -17.2521641500000       3.703528066883889E-002 !
 C         -1.4774720221       -1.4056955787        0.3665955273
 C         -1.0426890453       -0.0000122743       -0.0000182316
 C         -1.4773153297        1.0202259307        1.0342031387
 C         -1.4774257761        0.3854339473       -1.4006910191
 Br         1.0038345604        0.0000054969       -0.0000167433
 H         -2.5645514813       -1.4509949244        0.3782325047
 H         -1.1074635173       -2.1281996939       -0.3575997417
 H         -1.1076903500       -1.6825313449        1.3514871739
 H         -1.1077538205        2.0115804230        0.7812194285
 H         -2.5643839326        1.0528348371        1.0679230478
 H         -1.1069663429        0.7545795545        2.0219634065
 H         -1.1071272007        1.3737048012       -1.6644294332
 H         -2.5645015224        0.3984166601       -1.4456311906
 H         -1.1080223032       -0.3292543990       -2.1329033714
  14
  -17.2521641500000       3.703528066883889E-002 !
 C         -1.4773210220       -1.4058303333        0.3664462355
 C         -1.0426777600       -0.0000329353        0.0000233988
 C         -1.4771784436        1.0204210015        1.0340885343
 C         -1.4773982244        0.3854557571       -1.4006161608
 Br         1.0037696847       -0.0000035523        0.0000118489
 H         -2.5643958156       -1.4512140642        0.3781453318
 H         -1.1073113577       -2.1283535057       -0.3577380418
 H         -1.1074697161       -1.6826646239        1.3512903743
 H         -1.1067906192        0.7546848903        2.0217943134
 H         -1.1075939110        2.0118071703        0.7810917763
 H         -2.5642447955        1.0529711759        1.0678857864
 H         -2.5644810890        0.3984305817       -1.4456279631
 H         -1.1079105496       -0.3292419404       -2.1327620503
 H         -1.1070129297        1.3737011743       -1.6643277926
