  8
  -15.7944481000000       0.333336860655776      !
 C         -1.4836820793       -0.0001556942        0.1077702547
 C         -0.0555369454        0.0000028121       -0.3733876836
 F          0.6300207628       -1.0845550192        0.1051523188
 F          0.6298016273        1.0846565143        0.1051881067
 H         -1.9832661988       -0.8884948705       -0.2643837391
 H         -1.5023830677       -0.0000189547        1.1946014018
 H         -1.9832324259        0.8882652178       -0.2649781736
 H          0.0643373483        0.0001573136       -1.4647620961
  8
  -15.7944480900000       0.333333333320682      !
 C         -1.4838657158        0.0000194935        0.1076855008
 C         -0.0556275016       -0.0000908057       -0.3731391694
 F          0.6302645021       -1.0846051815        0.1050680558
 F          0.6297904008        1.0846674275        0.1051502068
 H         -1.9839743826        0.8884756698       -0.2645648616
 H         -1.9829847216       -0.8886183046       -0.2646282970
 H         -1.5024265955       -0.0000832148        1.1945219011
 H          0.0637260961       -0.0000976438       -1.4645001197
  8
  -15.7944480800000       0.333329806023542      !
 C         -1.4839325172       -0.0004037283        0.1076837319
 C         -0.0555778583        0.0001234705       -0.3730472046
 F          0.6299414466       -1.0845816702        0.1050982211
 F          0.6301264913        1.0848061227        0.1050796880
 H         -1.5028675879       -0.0010266050        1.1946657698
 H         -1.9830526130        0.8884165836       -0.2640702783
 H         -1.9838543277       -0.8883046689       -0.2658057818
 H          0.0640736908        0.0000236279       -1.4642752606
