  13
  -16.6888718200000       6.523619511508946E-002 !
 C         -2.3894099162       -0.0951862819        0.0000150391
 C         -0.9114068437       -0.4635760698       -0.0000375130
 C         -0.0227396466        0.7774502197        0.0000158747
 C          1.4332745666        0.4646226202       -0.0000141090
 O          1.9227707759       -0.6394613204        0.0000217565
 H         -2.6377245188        0.4894977462       -0.8825059245
 H         -3.0020791752       -0.9925730510        0.0000317878
 H         -2.6376690378        0.4894866586        0.8825609396
 H         -0.6774456242       -1.0678732781       -0.8787185378
 H         -0.6773802980       -1.0678083313        0.8786583086
 H         -0.2249732938        1.3996583277       -0.8760657837
 H         -0.2249383262        1.3996849967        0.8760978497
 H          2.0861923956        1.3579207398       -0.0001572264
  13
  -16.6888717900000       6.523412416988102E-002 !
 C         -2.3897955116       -0.0953446129       -0.0002644699
 C         -0.9116683045       -0.4633609736        0.0008754047
 C         -0.0225489145        0.7773549279       -0.0001562758
 C          1.4335126686        0.4646577381        0.0006142384
 O          1.9230065627       -0.6394450952       -0.0003608833
 H         -2.6387640525        0.4907707318        0.8811291085
 H         -2.6375354954        0.4878765128       -0.8838658979
 H         -3.0024523655       -0.9927575678        0.0005588967
 H         -0.6773337422       -1.0687181295       -0.8769514856
 H         -0.6780329742       -1.0665210353        0.8804021464
 H         -0.2245502399        1.3984508950       -0.8769912460
 H         -0.2249563686        1.4006759357        0.8751252105
 H          2.0864649914        1.3579995354       -0.0064154041
  13
  -16.6888717200000       6.522929221997600E-002 !
 C         -2.3899923050       -0.0954149637       -0.0002330879
 C         -0.9118091128       -0.4632559517       -0.0006003967
 C         -0.0224661194        0.7773019793        0.0005449270
 C          1.4336308227        0.4646845684       -0.0011531669
 O          1.9231526555       -0.6394462499        0.0002980743
 H         -3.0026360541       -0.9928364696       -0.0007120342
 H         -2.6383242095        0.4884179363        0.8828040502
 H         -2.6384659881        0.4900719130       -0.8821688917
 H         -0.6775015860       -1.0668569342       -0.8796736794
 H         -0.6781614337       -1.0681596947        0.8776761641
 H         -0.2252269155        1.4008834532       -0.8744568851
 H         -0.2241328135        1.3981325129        0.8776239305
 H          2.0865981371        1.3580405727        0.0113556567
  13
  -16.6887780300000       5.907255065053953E-002 !
 C         -1.8504630373       -0.7595811110       -0.1228000616
 C         -1.3271835759        0.6047318045        0.3116322836
 C          0.0733858238        0.8667373948       -0.2459546710
 C          1.0909238035       -0.0510294922        0.3391399020
 O          2.0024255490       -0.5697091683       -0.2604981766
 H         -1.1881887946       -1.5512122756        0.2227234712
 H         -2.8421062164       -0.9354848688        0.2856208771
 H         -1.9099636237       -0.8176970311       -1.2070951775
 H         -1.2979130052        0.6561971734        1.4014075893
 H         -2.0022413260        1.3830049247       -0.0451504739
 H          0.0900651192        0.7872109274       -1.3338976256
 H          0.3867433646        1.8786869889        0.0272155729
 H          0.9695368581       -0.2323736672        1.4236048789
  13
  -16.6887779800000       5.906942521976803E-002 !
 C         -1.8510356632       -0.7593145983       -0.1227895770
 C         -1.3273197164        0.6048713855        0.3115617424
 C          0.0733974915        0.8663350325       -0.2458288261
 C          1.0907060460       -0.0518837013        0.3389895571
 O          2.0032973337       -0.5689566229       -0.2604049870
 H         -2.8430133765       -0.9345700026        0.2850968354
 H         -1.9099442953       -0.8177619086       -1.2071048179
 H         -1.1893901435       -1.5511942901        0.2233772807
 H         -1.2982397353        0.6564902134        1.4013379099
 H         -2.0020369163        1.3833352040       -0.0454450118
 H          0.0901704681        0.7871170352       -1.3337978206
 H          0.3872267218        1.8781197251        0.0274758512
 H          0.9682230333       -0.2350148398        1.4230172388
  13
  -16.6887779500000       5.906755004054590E-002 !
 C         -1.8504859487       -0.7596047237       -0.1226863994
 C         -1.3272514496        0.6048284553        0.3114652852
 C          0.0734100622        0.8667077598       -0.2459694218
 C          1.0908650877       -0.0511690760        0.3391232756
 O          2.0025448817       -0.5696155579       -0.2604239010
 H         -1.9095498179       -0.8181688677       -1.2069768252
 H         -1.1884438567       -1.5511673871        0.2234394841
 H         -2.8423135311       -0.9352465141        0.2853673642
 H         -1.2981366581        0.6565926924        1.4012284231
 H         -2.0022632620        1.3830135649       -0.0456048176
 H          0.0902040470        0.7871654518       -1.3339293109
 H          0.3868247893        1.8786683282        0.0272328513
 H          0.9692090976       -0.2328649093        1.4235023951
  13
  -16.6887742700000       5.883797900909538E-002 !
 C         -1.8521976981       -0.7586363472        0.1236341067
 C         -1.3272179659        0.6044647960       -0.3126222393
 C          0.0733018641        0.8658271277        0.2453141260
 C          1.0907936658       -0.0527037216       -0.3386663513
 O          2.0043645766       -0.5680411445        0.2607579757
 H         -1.9130588920       -0.8149682961        1.2079408007
 H         -2.8435367075       -0.9342979397       -0.2855791275
 H         -1.1903614259       -1.5514617131       -0.2198893064
 H         -2.0017294545        1.3838953301        0.0426219164
 H         -1.2973938528        0.6543452423       -1.4024831146
 H          0.3876151200        1.8774084799       -0.0283436381
 H          0.0896945646        0.7873270703        1.3333419205
 H          0.9675555639       -0.2376721969       -1.4223146760
  13
  -16.6887742700000       5.883797900909538E-002 !
 C         -1.8520610062       -0.7587381473        0.1235035313
 C         -1.3272244207        0.6044762728       -0.3124572696
 C          0.0733210687        0.8659201827        0.2453972606
 C          1.0908620289       -0.0524704020       -0.3387231943
 O          2.0041564522       -0.5682466821        0.2607173290
 H         -1.1900625518       -1.5513745353       -0.2201614754
 H         -1.9128520463       -0.8151693358        1.2078069402
 H         -2.8433927169       -0.9344857359       -0.2857183312
 H         -2.0018909802        1.3837462126        0.0428565540
 H         -1.2973861187        0.6544319882       -1.4023009860
 H          0.3874992318        1.8775600969       -0.0281884922
 H          0.0897074069        0.7872729858        1.3334044636
 H          0.9678709358       -0.2369559441       -1.4224818405
  13
  -16.6887741600000       5.883113058273758E-002 !
 C         -1.8521432280       -0.7587722129        0.1235515396
 C         -1.3270786915        0.6043102552       -0.3125928926
 C          0.0733517583        0.8661854662        0.2454326233
 C          1.0912193115       -0.0518374958       -0.3388181537
 O          2.0039130353       -0.5686878007        0.2607836231
 H         -2.8428522252       -0.9352801834       -0.2867570720
 H         -1.1893925703       -1.5513288761       -0.2188542796
 H         -1.9142932148       -0.8145436287        1.2077782423
 H         -2.0019080750        1.3834693360        0.0426581073
 H         -1.2973107623        0.6541153400       -1.4025067136
 H          0.3874552307        1.8779740376       -0.0276411299
 H          0.0894217819        0.7872252605        1.3333808279
 H          0.9668569579       -0.2379222345       -1.4221392714
  13
  -16.6884255100000       4.067979431501258E-002 !
 C         -1.7149967012       -0.5878388484        0.5379942061
 C         -1.0795809400        0.0641568983       -0.6850111377
 C          0.0285453611        1.0403887488       -0.2939789468
 C          1.2746145911        0.3799707002        0.1904745242
 O          1.5019310677       -0.8055388779        0.1982387696
 H         -2.4983313674       -1.2777638555        0.2355365053
 H         -0.9681995422       -1.1446361634        1.0994858252
 H         -2.1517081514        0.1644486176        1.1912171154
 H         -1.8441019125        0.5973092226       -1.2514974729
 H         -0.6562100193       -0.7108328308       -1.3267061111
 H          0.3213180952        1.6560071970       -1.1492512715
 H         -0.3127600935        1.7270940652        0.4841500545
 H          2.0412043876        1.0900707572        0.5555910585
  13
  -16.6884254000000       4.067505940432548E-002 !
 C         -1.7147956803       -0.5880796848        0.5379385181
 C         -1.0797439667        0.0644377451       -0.6849650947
 C          0.0285711754        1.0404594520       -0.2939152605
 C          1.2746368974        0.3799323578        0.1904071675
 O          1.5018544295       -0.8056049749        0.1982423246
 H         -2.1509802300        0.1639855823        1.1918305092
 H         -2.4985350639       -1.2774847915        0.2353899131
 H         -0.9679402620       -1.1455842254        1.0986528322
 H         -1.8444663949        0.5979366088       -1.2508478577
 H         -0.6567164872       -0.7102587176       -1.3272533485
 H          0.3213458611        1.6563354851       -1.1490193602
 H         -0.3126115598        1.7269538715        0.4844603958
 H          2.0413058856        1.0899999926        0.5554148577
  13
  -16.6884252800000       4.066989467571652E-002 !
 C         -1.7148719521       -0.5881103959       -0.5378926870
 C         -1.0797086401        0.0644519271        0.6849180476
 C          0.0285782265        1.0405079177        0.2938506800
 C          1.2746826585        0.3799453248       -0.1903656354
 O          1.5018431827       -0.8056325461       -0.1982083056
 H         -2.4984681125       -1.2777262623       -0.2353672339
 H         -2.1512066473        0.1640016748       -1.1915705265
 H         -0.9679657591       -1.1453037996       -1.0988614434
 H         -0.6564916342       -0.7103367144        1.3269628500
 H         -1.8444341502        0.5977439559        1.2510187966
 H         -0.3126398663        1.7269147688       -0.4845616779
 H          0.3212565443        1.6564898747        1.1488984366
 H          2.0413884920        1.0900028803       -0.5553980026
  13
  -16.6884252300000       4.066774289897936E-002 !
 C         -1.7147559094       -0.5881063275       -0.5379131801
 C         -1.0795904601        0.0644100851        0.6849584310
 C          0.0285527823        1.0405789093        0.2938301036
 C          1.2746225831        0.3799260279       -0.1903352797
 O          1.5016923080       -0.8056409368       -0.1982375025
 H         -2.1511658238        0.1639432209       -1.1916613395
 H         -0.9677892250       -1.1452913511       -1.0988491910
 H         -2.4983115540       -1.2777671973       -0.2353357247
 H         -0.6562539104       -0.7102910459        1.3270516686
 H         -1.8443013598        0.5976997293        1.2510775624
 H         -0.3126874540        1.7269766891       -0.4846030705
 H          0.3212019947        1.6565667381        1.1488834145
 H          2.0413691238        1.0899168982       -0.5553322140
  13
  -16.6884251600000       4.066473060290061E-002 !
 C         -1.7143051604       -0.5878022450       -0.5380121579
 C         -1.0791120051        0.0639047979        0.6851546819
 C          0.0284083847        1.0407053862        0.2938685719
 C          1.2744279387        0.3800444193       -0.1902991015
 O          1.5011540740       -0.8056535400       -0.1982936103
 H         -0.9673108423       -1.1439856414       -1.1001183999
 H         -2.4972526302       -1.2779715678       -0.2355319541
 H         -2.1517550339        0.1645745360       -1.1906037816
 H         -0.6553841436       -0.7113691986        1.3264321010
 H         -1.8437721509        0.5966332694        1.2518952126
 H         -0.3127552357        1.7274478030       -0.4842915548
 H          0.3211102158        1.6562459688        1.1492209497
 H          2.0406927551        1.0898582659       -0.5569294604
  13
  -16.6884250000000       4.065784619230515E-002 !
 C         -1.7146439691       -0.5891399622        0.5373033038
 C         -1.0805528879        0.0657864225       -0.6848228184
 C          0.0285421226        1.0405049585       -0.2928458830
 C          1.2754669706        0.3798256393        0.1890422457
 O          1.5019423732       -0.8058572382        0.1985488614
 H         -0.9675179470       -1.1477181009        1.0964954196
 H         -2.1497998990        0.1619139911        1.1929863328
 H         -2.4990666897       -1.2776322629        0.2342358468
 H         -1.8458502765        0.6005691387       -1.2487788490
 H         -0.6585019624       -0.7074880092       -1.3293260636
 H          0.3198876414        1.6591764598       -1.1462889270
 H         -0.3122635593        1.7245603576        0.4878473157
 H          2.0414048199        1.0897993004        0.5559867414
  13
  -16.6882681100000       3.443838023499026E-002 !
 C         -2.4989999063        0.1016772158        0.1618275174
 C         -1.1584584124       -0.3944888476       -0.3665011922
 C          0.0032421815        0.4011746671        0.2348100063
 C          1.3196271423        0.0062292532       -0.3378519984
 O          2.3490968981       -0.1186588896        0.2819294003
 H         -2.5407306460        0.0095958727        1.2442351631
 H         -2.6512295328        1.1455565713       -0.1008217388
 H         -3.3107601950       -0.4822907937       -0.2633405555
 H         -1.1362332439       -0.3007390754       -1.4536336716
 H         -1.0371423210       -1.4503681108       -0.1181361689
 H         -0.1318984139        1.4599216889       -0.0082554976
 H          0.0309627755        0.3054835408        1.3212636600
 H          1.3082005818       -0.1691392556       -1.4297029807
  13
  -16.6882679800000       3.443364303371070E-002 !
 C         -2.4992101105        0.1019312126        0.1618744147
 C         -1.1587856076       -0.3944652266       -0.3665475979
 C          0.0032575245        0.4006895088        0.2347314590
 C          1.3197023656        0.0055672251       -0.3377814769
 O          2.3495259638       -0.1178735273        0.2819121106
 H         -2.6512229539        1.1458590613       -0.1007664729
 H         -3.3112317061       -0.4818514801       -0.2630837866
 H         -2.5407139574        0.0098735646        1.2442900669
 H         -1.1366966564       -0.3006067421       -1.4536677200
 H         -1.0377968902       -1.4504240381       -0.1183789446
 H         -0.1315038959        1.4595488038       -0.0082066616
 H          0.0308855489        0.3050080987        1.3211946061
 H          1.3079633150       -0.1714912908       -1.4294086542
  13
  -16.6882678000000       3.442708490766771E-002 !
 C         -2.4990243156        0.1018401963       -0.1617650113
 C         -1.1585227514       -0.3946399968        0.3663715565
 C          0.0032362743        0.4010356544       -0.2348058282
 C          1.3196330511        0.0061125393        0.3378717728
 O          2.3491841053       -0.1184560186       -0.2818879122
 H         -2.6509772425        1.1457556819        0.1009242247
 H         -2.5408586380        0.0098119812       -1.2441736704
 H         -3.3109097841       -0.4819409483        0.2634327290
 H         -1.0373883868       -1.4504635731        0.1177049711
 H         -1.1362434394       -0.3012207293        1.4535322147
 H          0.0309773907        0.3054870831       -1.3212759751
 H         -0.1319254576        1.4597657308        0.0083744455
 H          1.3081678074       -0.1694887470        1.4297287994
  13
  -16.6882677500000       3.442526342778045E-002 !
 C         -2.4990256835        0.1018726418       -0.1617759266
 C         -1.1585566707       -0.3946300672        0.3663712272
 C          0.0032403161        0.4010032858       -0.2347712495
 C          1.3196078067        0.0058693779        0.3378329145
 O          2.3492324166       -0.1182424335       -0.2818722560
 H         -2.5406648219        0.0101840217       -1.2442205350
 H         -3.3108756782       -0.4821740356        0.2631287217
 H         -2.6511270612        1.1456778191        0.1012474179
 H         -1.0374011170       -1.4504181725        0.1175910753
 H         -1.1363968706       -0.3013268651        1.4535499488
 H          0.0309902788        0.3056596842       -1.3212666338
 H         -0.1318559791        1.4596968238        0.0085731032
 H          1.3080797723       -0.1702048105        1.4295811122
  13
  -16.6882676900000       3.442307777894447E-002 !
 C         -2.4989683184        0.1016269801        0.1618094987
 C         -1.1583977035       -0.3944932795       -0.3665024646
 C          0.0032241376        0.4012677672        0.2348506303
 C          1.3196273796        0.0064614630       -0.3379034709
 O          2.3490283226       -0.1188959571        0.2819452043
 H         -3.3107425262       -0.4824261410       -0.2632271330
 H         -2.5406133621        0.0096449382        1.2442293259
 H         -2.6512645806        1.1454791295       -0.1009277278
 H         -1.1361613386       -0.3008427936       -1.4536454235
 H         -1.0370302433       -1.4503337685       -0.1180273565
 H         -0.1320120323        1.4600243104       -0.0081424318
 H          0.0309137955        0.3054501103        1.3213057360
 H          1.3082801814       -0.1684372932       -1.4298484947
  13
  -16.6882676400000       3.442125651093833E-002 !
 C         -2.4990048163        0.1022115205       -0.1618847548
 C         -1.1587925487       -0.3947492583        0.3664911286
 C          0.0031876704        0.4005650952       -0.2346554955
 C          1.3195793871        0.0051251395        0.3377333428
 O          2.3495064961       -0.1173919681       -0.2818749794
 H         -3.3110611692       -0.4814260717        0.2631356023
 H         -2.6507735453        1.1461215327        0.1008950383
 H         -2.5407071703        0.0103040683       -1.2443063084
 H         -1.0380046016       -1.4506276785        0.1178537707
 H         -1.1366581557       -0.3013073760        1.4536624429
 H          0.0308012695        0.3053200760       -1.3211623645
 H         -0.1314838270        1.4593438243        0.0086094734
 H          1.3078132365       -0.1726615175        1.4292150043
