  13
        -16.68887182
 C         -2.3894099162       -0.0951862819        0.0000150391
 C         -0.9114068437       -0.4635760698       -0.0000375130
 C         -0.0227396466        0.7774502197        0.0000158747
 C          1.4332745666        0.4646226202       -0.0000141090
 O          1.9227707759       -0.6394613204        0.0000217565
 H         -2.6377245188        0.4894977462       -0.8825059245
 H         -3.0020791752       -0.9925730510        0.0000317878
 H         -2.6376690378        0.4894866586        0.8825609396
 H         -0.6774456242       -1.0678732781       -0.8787185378
 H         -0.6773802980       -1.0678083313        0.8786583086
 H         -0.2249732938        1.3996583277       -0.8760657837
 H         -0.2249383262        1.3996849967        0.8760978497
 H          2.0861923956        1.3579207398       -0.0001572264
