  14
  -17.7101810300000       6.988389936990989E-002 !
 C         -2.8506864758        0.4268758600       -0.1527473175
 C         -1.4418075986        0.2801362118        0.4086991632
 C         -0.6600317676       -0.8129830336       -0.3178801248
 C          0.7410122556       -1.0017701563        0.2335619269
 Cl         1.7627183494        0.4507687028       -0.0687556465
 H         -2.8155021852        0.6868688822       -1.2081111962
 H         -3.4020139290       -0.5043805255       -0.0467035774
 H         -3.3904893986        1.2087240233        0.3750398005
 H         -1.4966839683        0.0378569458        1.4720283112
 H         -0.9096314402        1.2283622466        0.3105254095
 H         -1.1839397759       -1.7651190532       -0.2104191337
 H         -0.6041286809       -0.5759997086       -1.3817410479
 H          1.2543366198       -1.8301663667       -0.2506238829
 H          0.7317171385       -1.1413507978        1.3131852170
  14
  -17.7101802700000       6.982771936934092E-002 !
 C         -2.8556030740        0.4146168329        0.0925183339
 C         -1.4272108682        0.3205288280       -0.4295266978
 C         -0.6694176193       -0.8376774964        0.2172269086
 C          0.7500294778       -0.9763830546       -0.3010082974
 Cl         1.7589578377        0.4390857653        0.1718777002
 H         -3.4006483753       -0.5016040880       -0.1216644582
 H         -2.8587862538        0.5726302867        1.1684386772
 H         -3.3779246375        1.2439016207       -0.3772432819
 H         -0.9011358971        1.2545718515       -0.2225606302
 H         -1.4434223594        0.1806975482       -1.5123989544
 H         -0.6506021792       -0.7022209157        1.2999932235
 H         -1.1880123183       -1.7744241460        0.0024073021
 H          0.7781089422       -1.0135330518       -1.3886242838
 H          1.2474013974       -1.8477886995        0.1202675888
  14
  -17.7101801700000       6.982033062721749E-002 !
 C         -2.8543265902        0.4146573606        0.0927506863
 C         -1.4263958897        0.3204954926       -0.4300413803
 C         -0.6689811928       -0.8378710495        0.2173375374
 C          0.7501632233       -0.9769622504       -0.3010177803
 Cl         1.7578740779        0.4394174274        0.1719495010
 H         -3.3766985865        1.2433524728       -0.3778139208
 H         -3.3997517719       -0.5017290352       -0.1199117105
 H         -2.8563348282        0.5740343770        1.1684371340
 H         -0.9001738041        1.2549675292       -0.2251349268
 H         -1.4443524387        0.1794761592       -1.5126893428
 H         -0.6494298471       -0.7021833001        1.3000857516
 H         -1.1869051948       -1.7751802780        0.0031863831
 H          0.7778908666       -1.0146726884       -1.3886951220
 H          1.2471373573       -1.8483781324        0.1207844519
  14
  -17.7101793100000       6.975681970878908E-002 !
 C         -2.8569956306        0.4132457127        0.0915895597
 C         -1.4274051793        0.3226691795       -0.4276766432
 C         -0.6697711934       -0.8370582289        0.2166829160
 C          0.7497309745       -0.9759968986       -0.3014137128
 Cl         1.7599054953        0.4384757185        0.1719275572
 H         -2.8626602698        0.5644261854        1.1684433262
 H         -3.3787674185        1.2451614371       -0.3742262379
 H         -3.4009187779       -0.5019658596       -0.1295571624
 H         -0.9031011604        1.2567025001       -0.2165222340
 H         -1.4410312937        0.1864157335       -1.5110037977
 H         -0.6508458190       -0.7041109890        1.2997242828
 H         -1.1887037611       -1.7732047930       -0.0002493069
 H          0.7774984585       -1.0133131211       -1.3892248622
 H          1.2468553243       -1.8475701136        0.1198126935
  14
  -17.7101784300000       6.969189159429222E-002 !
 C         -2.8510315823        0.4264444840       -0.1524147275
 C         -1.4416170473        0.2808282261        0.4080186279
 C         -0.6601533716       -0.8129200207       -0.3179414079
 C          0.7409613675       -1.0018212547        0.2333100191
 Cl         1.7628585677        0.4506837139       -0.0684943831
 H         -3.3907045204        1.2086225723        0.3750692167
 H         -2.8168097830        0.6853610470       -1.2080569921
 H         -3.4018773269       -0.5049591584       -0.0450887677
 H         -1.4953981618        0.0398030736        1.4717173263
 H         -0.9098217477        1.2291027137        0.3082084578
 H         -1.1842563702       -1.7648926422       -0.2097487543
 H         -0.6044231057       -0.5765858765       -1.3819590261
 H          1.2542043562       -1.8301106925       -0.2511350925
 H          0.7317161858       -1.1418037926        1.3128621248
  14
  -17.7101782300000       6.967714363502267E-002 !
 C         -2.8514047136        0.4263175750       -0.1525679973
 C         -1.4420251603        0.2808091078        0.4083003979
 C         -0.6605340604       -0.8126980526       -0.3179488952
 C          0.7407380169       -1.0014294756        0.2332744367
 Cl         1.7634240858        0.4505259395       -0.0685450164
 H         -3.4025651652       -0.5051543141       -0.0452466068
 H         -3.3912066705        1.2084544802        0.3746858074
 H         -2.8168167939        0.6854570148       -1.2081497611
 H         -1.4959382814        0.0387417630        1.4717662606
 H         -0.9098134834        1.2290676255        0.3094175882
 H         -1.1846655009       -1.7646620284       -0.2098262299
 H         -0.6052930021       -0.5761130270       -1.3819459747
 H          1.2539187386       -1.8298438457       -0.2508410193
 H          0.7316255572       -1.1414343295        1.3127713850
  14
  -17.7099925600000       5.724826308665923E-002 !
 C         -3.1172699064        0.4483395021       -0.1543970966
 C         -1.9220562028       -0.2553434770        0.4773257271
 C         -0.6076773496        0.2044088089       -0.1558607224
 C          0.5744938129       -0.5028497322        0.4813194311
 Cl         2.1197259577        0.0381883261       -0.2646169016
 H         -3.0393468623        1.5247993006       -0.0228672419
 H         -3.1651718595        0.2363121451       -1.2197344618
 H         -4.0425434452        0.1116007515        0.3054214072
 H         -2.0260267009       -1.3342783018        0.3505094633
 H         -1.9000337572       -0.0453333763        1.5480083465
 H         -0.6238111905       -0.0068784004       -1.2265381105
 H         -0.4977950585        1.2827800894       -0.0285518075
 H          0.5265550474       -1.5801482625        0.3319983057
 H          0.6543101320       -0.2755827708        1.5430349447
  14
  -17.7099925000000       5.724462841295979E-002 !
 C         -3.1172436066        0.4479797563       -0.1548429993
 C         -1.9220526640       -0.2548747238        0.4779580339
 C         -0.6077034798        0.2045534341       -0.1556518720
 C          0.5744764755       -0.5031830427        0.4810173527
 Cl         2.1197302119        0.0382253130       -0.2646354678
 H         -4.0425254384        0.1120782706        0.3055505646
 H         -3.0391669100        1.5246491079       -0.0250076077
 H         -3.1651466151        0.2343001652       -1.2198393924
 H         -2.0257641583       -1.3340170334        0.3524374641
 H         -1.9002085297       -0.0435031142        1.5484088178
 H         -0.6242594080       -0.0064427980       -1.2263844245
 H         -0.4975133691        1.2828910617       -0.0281814931
 H          0.5264390642       -1.5803811675        0.3309392494
 H          0.6542944381       -0.2766548305        1.5429004120
  14
  -17.7099924700000       5.724281116275518E-002 !
 C         -3.1172945895        0.4484262310       -0.1543445916
 C         -1.9221195729       -0.2554697841        0.4772207784
 C         -0.6076719415        0.2044138089       -0.1558223057
 C          0.5745212514       -0.5028492089        0.4813446320
 Cl         2.1197477730        0.0382016408       -0.2646251963
 H         -3.1650110928        0.2367687152       -1.2197401810
 H         -4.0426102140        0.1114604382        0.3052853775
 H         -3.0393360786        1.5248117808       -0.0224034797
 H         -2.0263034025       -1.3343418308        0.3500687025
 H         -1.9000619397       -0.0458450044        1.5480405166
 H         -0.6236143962       -0.0068178167       -1.2264775765
 H         -0.4978171385        1.2828227524       -0.0284876606
 H          0.5265000366       -1.5801685096        0.3321330204
 H          0.6542810552       -0.2754818754        1.5430207330
  14
  -17.7094476500000       3.216170155002448E-002 !
 C         -2.7064384255        0.3821935670       -0.5551570103
 C         -1.9940216337       -0.2649724715        0.6273691105
 C         -0.5264161869        0.1542795366        0.7519156325
 C          0.3133165246       -0.3704636018       -0.3996438481
 Cl         2.0486723789        0.0353044924       -0.1493677083
 H         -2.6078310489        1.4641868604       -0.5125826491
 H         -2.2970327390        0.0338177342       -1.4991669670
 H         -3.7645741546        0.1343494485       -0.5339854528
 H         -2.0529897862       -1.3511794056        0.5393643766
 H         -2.5048233767        0.0220238830        1.5478576972
 H         -0.4574413212        1.2429629899        0.7842412169
 H         -0.1226857329       -0.2355989289        1.6881331763
 H          0.0364993850        0.0826407349       -1.3487023789
 H          0.2621622876       -1.4557366257       -0.4695520799
  14
  -17.7094475500000       3.215829839538057E-002 !
 C         -2.7064659412        0.3824504608       -0.5551031093
 C         -1.9941554723       -0.2652597293        0.6272365123
 C         -0.5265788395        0.1539692770        0.7519781477
 C          0.3133886621       -0.3703690710       -0.3996620069
 Cl         2.0487650998        0.0353912696       -0.1493459697
 H         -2.2970174439        0.0344482410       -1.4992397660
 H         -3.7645581740        0.1345995562       -0.5341845518
 H         -2.6077791863        1.4644752347       -0.5120264579
 H         -2.0531591480       -1.3514559918        0.5389019454
 H         -2.5049687299        0.0214992104        1.5477083740
 H         -0.4576638859        1.2426345178        0.7846101354
 H         -0.1228485986       -0.2360438790        1.6881105637
 H          0.0366222771        0.0829268930       -1.3487355172
 H          0.2623963765       -1.4557368922       -0.4698932004
  14
  -17.7094474300000       3.215421508521039E-002 !
 C         -2.7067829394        0.3823670825       -0.5550179003
 C         -1.9942863755       -0.2651027862        0.6272656768
 C         -0.5266342327        0.1541038246        0.7516845269
 C          0.3136666720       -0.3711664822       -0.3992515019
 Cl         2.0488682792        0.0356496145       -0.1494584749
 H         -3.7648294662        0.1340985773       -0.5340462114
 H         -2.6085547348        1.4643560839       -0.5117959879
 H         -2.2971435296        0.0346046441       -1.4991594575
 H         -2.0532752605       -1.3512489082        0.5389427407
 H         -2.5050485955        0.0216481349        1.5478690996
 H         -0.4577248420        1.2428120165        0.7833924671
 H         -0.1230226457       -0.2352110547        1.6882017356
 H          0.0366175276        0.0808153436       -1.3488122429
 H          0.2630603557       -1.4565927268       -0.4681390955
  14
  -17.7094471700000       3.214536969169985E-002 !
 C         -2.6598643185        0.8331817552        0.1039293195
 C         -2.0234183427       -0.5479957049        0.2136336250
 C         -0.6054377828       -0.6074819091       -0.3616256264
 C          0.3738136097        0.2169534325        0.4557658564
 Cl         2.0469633758        0.0160939562       -0.1759870991
 H         -2.6365689732        1.1817537217       -0.9257616978
 H         -3.6967472877        0.7928431365        0.4276142819
 H         -2.1398665526        1.5559470389        0.7263566953
 H         -2.6381316112       -1.2647229801       -0.3330913215
 H         -2.0019521672       -0.8583605567        1.2596986654
 H         -0.2684826609       -1.6456920203       -0.3719123798
 H         -0.6119078215       -0.2466144955       -1.3916057584
 H          0.4003094233       -0.1078873284        1.4946451756
 H          0.1607953613        1.2819228373        0.3982603366
  14
  -17.7094471300000       3.214400907792880E-002 !
 C         -2.6594695037        0.8332800228        0.1034485264
 C         -2.0231779931       -0.5478013906        0.2141825524
 C         -0.6053318320       -0.6083394275       -0.3612547550
 C          0.3734182525        0.2179833294        0.4548857911
 Cl         2.0468218407        0.0158774135       -0.1757867733
 H         -3.6965279954        0.7937079791        0.4269768072
 H         -2.1391442220        1.5559902022        0.7255178644
 H         -2.6354709782        1.1812548197       -0.9264594592
 H         -2.6382274640       -1.2647012980       -0.3319760520
 H         -2.0016249169       -0.8572658317        1.2605288651
 H         -0.2682484173       -1.6465230506       -0.3700385921
 H         -0.6121553722       -0.2491169416       -1.3917899978
 H          0.3994428489       -0.1048900719        1.4943689868
 H          0.1602624399        1.2828096210        0.3952851052
  14
  -17.7094461500000       3.211069202424473E-002 !
 C         -2.6606871892        0.8329464381        0.1025277832
 C         -2.0230626759       -0.5474406338        0.2153607349
 C         -0.6055330462       -0.6068986559       -0.3609430927
 C          0.3739538214        0.2190911371        0.4545215995
 Cl         2.0471474189        0.0148411999       -0.1758497795
 H         -2.1381936562        1.5586311306        0.7192692288
 H         -2.6426148368        1.1773978581       -0.9285686332
 H         -3.6959021665        0.7934449589        0.4315634696
 H         -2.6376542717       -1.2661671336       -0.3290145095
 H         -2.0004067020       -0.8549313807        1.2622934815
 H         -0.2681411425       -1.6449552101       -0.3701660109
 H         -0.6130293971       -0.2473687642       -1.3912970607
 H          0.3998253229       -0.1030449515        1.4944437488
 H          0.1621227407        1.2840133721        0.3936642378
  14
  -17.7093854100000       3.011171518597163E-002 !
 C         -2.3859201996        0.3969211012        0.5960202652
 C         -1.5089191119        0.2645124442       -0.6441382845
 C         -0.5894294856       -0.9574987753       -0.6028784855
 C          0.5105748611       -0.8655624027        0.4397402131
 Cl         1.6580090852        0.4709646958        0.0612894472
 H         -3.0735796319        1.2307027324        0.4791299150
 H         -2.9673729319       -0.5091303541        0.7498311675
 H         -1.7869419209        0.5796215027        1.4841826819
 H         -0.9030582514        1.1649802531       -0.7622048376
 H         -2.1500802365        0.1801744124       -1.5234022909
 H         -1.1800914777       -1.8469578807       -0.3739889439
 H         -0.1341506153       -1.0963460110       -1.5849649762
 H          1.1103903846       -1.7732808982        0.4617800543
 H          0.1176684109       -0.6532167505        1.4312185827
  14
  -17.7093853100000       3.010852894835257E-002 !
 C         -2.3881414127        0.3963493619        0.5956109408
 C         -1.5096357415        0.2652156622       -0.6437443255
 C         -0.5903823764       -0.9569892748       -0.6027180107
 C          0.5103562800       -0.8647401655        0.4391608527
 Cl         1.6597172801        0.4703847358        0.0614578287
 H         -2.9709140337       -0.5091258671        0.7476866392
 H         -1.7902697012        0.5770366159        1.4848430400
 H         -3.0747146154        1.2310499733        0.4792150404
 H         -0.9035047940        1.1656953124       -0.7604891391
 H         -2.1497519400        0.1817489044       -1.5238278744
 H         -1.1810834209       -1.8465581494       -0.3740467774
 H         -0.1352535873       -1.0955847647       -1.5848377318
 H          1.1093928331       -1.7729179440        0.4616951786
 H          0.1177666265       -0.6518336271        1.4305949754
  14
  -17.7093852700000       3.010725454773108E-002 !
 C         -2.3900036350        0.3945002218        0.5950856195
 C         -1.5085168971        0.2676578155       -0.6424970593
 C         -0.5896771384       -0.9549064180       -0.6035543697
 C          0.5101611577       -0.8651992722        0.4394279785
 Cl         1.6598722706        0.4695320146        0.0614307264
 H         -1.7941901022        0.5697936468        1.4868154097
 H         -3.0749527234        1.2308503499        0.4807800464
 H         -2.9745383111       -0.5108893447        0.7407931096
 H         -0.9017097077        1.1683021042       -0.7541926932
 H         -2.1465913364        0.1878405368       -1.5244206854
 H         -1.1807729830       -1.8445749860       -0.3764577880
 H         -0.1342087500       -1.0920996615       -1.5857653456
 H          1.1085347862       -1.7738246795        0.4614830032
 H          0.1174244986       -0.6523094108        1.4309318490
  14
  -17.7093843800000       3.007891308186588E-002 !
 C         -2.3791785180        0.4735908944       -0.5619747902
 C         -1.5154207283        0.1780679513        0.6591929575
 C         -0.5945632663       -1.0283908586        0.4670354310
 C          0.5154755128       -0.8013635018       -0.5438051096
 Cl         1.6577467491        0.4744259391        0.0163174929
 H         -2.9572024640       -0.4042633380       -0.8411366412
 H         -3.0696872749        1.2841099922       -0.3429816481
 H         -1.7709734890        0.7728214854       -1.4113833656
 H         -2.1659198590       -0.0211885435        1.5126818877
 H         -0.9115835050        1.0546899451        0.9015696839
 H         -0.1487700598       -1.2950589288        1.4268330918
 H         -1.1823771426       -1.8798275321        0.1178110025
 H          0.1319108158       -0.4617127224       -1.5029490591
 H          1.1165313687       -1.6985347079       -0.6780569539
  14
  -17.7093843500000       3.007795821653671E-002 !
 C         -2.3779278366        0.4736958357       -0.5621424336
 C         -1.5148190148        0.1778498836        0.6593059131
 C         -0.5941975389       -1.0286325542        0.4673075111
 C          0.5153901069       -0.8017058775       -0.5439618233
 Cl         1.6568720562        0.4747287467        0.0162748217
 H         -1.7695442394        0.7731253682       -1.4112622971
 H         -2.9557419547       -0.4040935929       -0.8417461319
 H         -3.0684964815        1.2841939175       -0.3432964410
 H         -2.1655331295       -0.0219296085        1.5124636443
 H         -0.9112627335        1.0545121979        0.9020908939
 H         -0.1487947285       -1.2949786557        1.4273109188
 H         -1.1819387647       -1.8801032937        0.1182549850
 H          0.1319139736       -0.4632015522       -1.5035806221
 H          1.1166788884       -1.6988320880       -0.6770691021
  14
  -17.7093843400000       3.007763993479213E-002 !
 C         -2.3777621674        0.4741024914       -0.5622028497
 C         -1.5150959217        0.1774068810        0.6595622398
 C         -0.5942624416       -1.0290007183        0.4672336890
 C          0.5156069129       -0.8018778276       -0.5437072453
 Cl         1.6568474937        0.4749538477        0.0161459189
 H         -3.0686911417        1.2843057447       -0.3431358776
 H         -1.7686047216        0.7745928158       -1.4104883077
 H         -2.9552950107       -0.4034622296       -0.8434109756
 H         -2.1664666828       -0.0230584847        1.5121137157
 H         -0.9115595917        1.0538024260        0.9036854007
 H         -0.1486604027       -1.2959062355        1.4270581345
 H         -1.1819937560       -1.8803698271        0.1177252974
 H          0.1319436208       -0.4633022704       -1.5032159022
 H          1.1169878905       -1.6989576905       -0.6771200604
  14
  -17.7078661100000       6.032725400653926E-003 !
 C         -1.8498156430        0.9707573238        0.0048156547
 C         -1.8128077133       -0.5247272236        0.2961484156
 C         -0.5745399955       -1.2327699897       -0.2579809257
 C          0.7277678453       -0.8667288349        0.4378719742
 Cl         1.4525059675        0.6544795539       -0.2010237509
 H         -2.7894478675        1.3967947182        0.3485738354
 H         -1.0382867826        1.4890920054        0.5076064556
 H         -1.7605954711        1.1536527362       -1.0638724542
 H         -2.6939408845       -0.9904069514       -0.1498023715
 H         -1.8639995179       -0.6850451789        1.3749692848
 H         -0.7096952187       -2.3086391873       -0.1278520872
 H         -0.4844150520       -1.0354606479       -1.3273314422
 H          1.4867960123       -1.6291588893        0.2735750247
 H          0.5820271019       -0.7083317436        1.5049453604
  14
  -17.7078660900000       6.032597726016430E-003 !
 C         -1.8496732845        0.9707105194        0.0047843031
 C         -1.8128933447       -0.5247361032        0.2961954740
 C         -0.5746173818       -1.2327189207       -0.2579423817
 C          0.7277530097       -0.8667175027        0.4378470349
 Cl         1.4525204139        0.6544769325       -0.2010362383
 H         -1.7605721137        1.1536031006       -1.0639286848
 H         -2.7893278748        1.3966269618        0.3486522767
 H         -1.0380344494        1.4889759432        0.5075405929
 H         -2.6940927943       -0.9903345452       -0.1497283826
 H         -1.8640339590       -0.6850627527        1.3750193069
 H         -0.7099197259       -2.3085777913       -0.1278481996
 H         -0.4845398717       -1.0353328390       -1.3272810140
 H          1.4867822055       -1.6291410061        0.2735635611
 H          0.5820957287       -0.7082480492        1.5049120954
  14
  -17.7078660800000       6.032533889710961E-003 !
 C         -1.8496862387        0.9707383548        0.0048631951
 C         -1.8127670020       -0.5247314735        0.2961049484
 C         -0.5745304797       -1.2327607374       -0.2580331427
 C          0.7277468531       -0.8667212754        0.4379209396
 Cl         1.4524429662        0.6544829037       -0.2010268547
 H         -1.0380666967        1.4889543708        0.5076909540
 H         -1.7605263699        1.1536820706       -1.0638341972
 H         -2.7893702361        1.3966322191        0.3487296933
 H         -2.6939097342       -0.9903326707       -0.1499170251
 H         -1.8639359739       -0.6851332968        1.3749152082
 H         -0.7098077699       -2.3086214379       -0.1279524840
 H         -0.4844572197       -1.0353818008       -1.3273733824
 H          1.4867884021       -1.6291423066        0.2736649860
 H          0.5820535359       -0.7082017661        1.5049872338
  14
  -17.7078647800000       6.024240920044578E-003 !
 C         -1.8526015921        0.9563642676       -0.1193773820
 C         -1.8243936048       -0.5661932345       -0.0590792807
 C         -0.5497652549       -1.1374767823        0.5659447939
 C          0.7056967039       -0.9479946583       -0.2720719208
 Cl         1.4576431304        0.6730272514       -0.0389324090
 H         -2.8146214263        1.2990265551       -0.4930957087
 H         -1.6980492784        1.3803458429        0.8705480546
 H         -1.0773356055        1.3378570083       -0.7778305087
 H         -1.9410832057       -0.9707835868       -1.0664701571
 H         -2.6734000974       -0.9090901861        0.5357104477
 H         -0.3968052681       -0.7021393149        1.5547279196
 H         -0.6848518818       -2.2137973235        0.6929074880
 H          0.4946849307       -1.0337970013       -1.3364857432
 H          1.4782515553       -1.6590439676        0.0140698475
  14
  -17.7078647500000       6.024049678444373E-003 !
 C         -1.8522370965        0.9562372609       -0.1200196131
 C         -1.8245828753       -0.5662719998       -0.0581164900
 C         -0.5495964039       -1.1372629895        0.5664259812
 C          0.7053068172       -0.9478536105       -0.2724515660
 Cl         1.4576481410        0.6729565462       -0.0390779024
 H         -1.0772915560        1.3367099722       -0.7793930835
 H         -2.8143229580        1.2991212753       -0.4934144106
 H         -1.6966567284        1.3811834091        0.8692782763
 H         -1.9422471399       -0.9718606268       -1.0649854949
 H         -2.6732392683       -0.9082492984        0.5377005718
 H         -0.3962005147       -0.7017119783        1.5550121568
 H         -0.6844105727       -2.2135057220        0.6937583162
 H          0.4934781680       -1.0333488966       -1.3367817665
 H          1.4780499336       -1.6590494683        0.0129947946
  14
  -17.7078647500000       6.024049678444373E-003 !
 C         -1.8527199058        0.9564676452       -0.1185151090
 C         -1.8240298358       -0.5661683312       -0.0604524242
 C         -0.5499232193       -1.1375816108        0.5654677303
 C          0.7061631479       -0.9482549089       -0.2716240178
 Cl         1.4574171340        0.6731266998       -0.0387412150
 H         -1.7002674800        1.3790180215        0.8723246481
 H         -1.0763754082        1.3393468144       -0.7749072442
 H         -2.8141705486        1.2992841833       -0.4935946475
 H         -1.9391399710       -0.9693497375       -1.0685563011
 H         -2.6737245280       -0.9103319792        0.5325937743
 H         -0.3977216683       -0.7025080276        1.5544386308
 H         -0.6851460565       -2.2138507450        0.6921067447
 H          0.4959441387       -1.0347559870       -1.3361856911
 H          1.4787396081       -1.6589507642        0.0155718134
