  6
         -7.82696707
 N          0.7308712293       -0.0000098523       -0.0893096788
 N         -0.7308723407        0.0000076737        0.0893127115
 H          1.0632313667        0.8131807789        0.4265716711
 H          1.0632284684       -0.8130933355        0.4265513920
 H         -1.0632356553       -0.8131714851       -0.4265211580
 H         -1.0632087351        0.8131143162       -0.4266440489
