  15
  -24.0344856300000       0.501764532572160      !
 C         -1.8293310919       -0.7566506678       -0.1251800633
 C         -1.8304633763        0.7561632321        0.1249380633
 C         -0.5347378524        1.3043717914       -0.4400749872
 S          0.6567230851        0.0000318526        0.0000039116
 C         -0.5346386570       -1.3031394542        0.4435052860
 O          1.4529261743        0.3849932967        1.1581672601
 O          1.4483151657       -0.3857688772       -1.1610032967
 H         -1.8642704115       -0.9477726740       -1.1981589593
 H         -2.6932420385       -1.2254105948        0.3426971448
 H         -2.6934528177        1.2238274400       -0.3457708623
 H         -1.8692822391        0.9472751696        1.1977504214
 H         -0.5323251802        1.3658951043       -1.5231717087
 H         -0.2027204762        2.2329659917        0.0072141627
 H         -0.2021456130       -2.2332462775       -0.0004132019
 H         -0.5334589944       -1.3611127235        1.5267538661
  15
  -24.0344789600000       0.498235467427840      !
 C         -1.8288118955       -0.5944449677        0.4863326496
 C         -1.8305954053        0.5953397963       -0.4808763844
 C         -0.5345896970        1.3514913261       -0.2624455259
 S          0.6566371611       -0.0001901035       -0.0009661512
 C         -0.5348155517       -1.3514715808        0.2611489249
 O          1.4503989161        0.2389780148        1.1974451031
 O          1.4506910613       -0.2393994045       -1.1991833195
 H         -2.6929905443       -1.2333443921        0.3131972371
 H         -1.8624250518       -0.2286138238        1.5130665640
 H         -1.8706526538        0.2291759872       -1.5071551516
 H         -2.6934670776        1.2347771213       -0.3033759185
 H         -0.2035539780        1.9368301450       -1.1112597919
 H         -0.5301736342        1.9410179731        0.6481575886
 H         -0.5351456577       -1.9384574658       -0.6512348261
 H         -0.2016241809       -1.9395472356        1.1073639737
