  15
  -15.7712999500000       6.828332593130380E-002 !
 C          1.6499851974       -0.9713049669       -0.0479426568
 C          1.3529287821        0.5074925534        0.1686812660
 C         -0.0328328074        0.8929372994       -0.3604448451
 C         -1.1254564392        0.2151317518        0.4025338819
 C         -2.0468886435       -0.5636740956       -0.1325924036
 H          1.6277901535       -1.2114847605       -1.1085687410
 H          0.9066688817       -1.5850674635        0.4560901229
 H          2.6325677884       -1.2252023111        0.3423766412
 H          1.4072499050        0.7373060657        1.2350942968
 H          2.1086380699        1.1082046790       -0.3415324978
 H         -0.1057201101        0.6367930689       -1.4189751899
 H         -0.1564591521        1.9752762960       -0.2617335096
 H         -1.1218925103        0.3986381624        1.4698621192
 H         -2.8172386118       -1.0295099910        0.4582662974
 H         -2.0714047952       -0.7651844246       -1.1911661057
  15
  -15.7712998000000       6.827248823196909E-002 !
 C          1.6508718041       -0.9709729173       -0.0475485646
 C          1.3531444813        0.5078175537        0.1683447049
 C         -0.0329550870        0.8922812847       -0.3604769857
 C         -1.1249791024        0.2137750589        0.4027049113
 C         -2.0483599937       -0.5624730671       -0.1327986668
 H          2.6338973563       -1.2239699500        0.3422061974
 H          1.6280644722       -1.2119621416       -1.1079803548
 H          0.9083312305       -1.5848597135        0.4574736518
 H          1.4079048834        0.7384135872        1.2345696303
 H          2.1082151379        1.1086423256       -0.3426374968
 H         -0.1060515331        0.6362420449       -1.4190290423
 H         -0.1573482293        1.9745335521       -0.2616104839
 H         -1.1192205733        0.3944304470        1.4705026686
 H         -2.8185934923       -1.0283605050        0.4581301039
 H         -2.0748329612       -0.7614977469       -1.1917941471
  15
  -15.7712997300000       6.826743122772129E-002 !
 C          1.6487286476       -0.9715229781       -0.0474695682
 C          1.3532159304        0.5077161651        0.1680937381
 C         -0.0328179689        0.8933583756       -0.3601832642
 C         -1.1247578751        0.2145122692        0.4027708924
 C         -2.0461482413       -0.5639164198       -0.1328702659
 H          0.9064685405       -1.5841608987        0.4595686447
 H          2.6324080425       -1.2254446044        0.3401466596
 H          1.6231508757       -1.2128525409       -1.1077980107
 H          1.4091494032        0.7385422455        1.2342088307
 H          2.1086540996        1.1072242410       -0.3438702098
 H         -0.1062985049        0.6381637078       -1.4189152099
 H         -0.1567101116        1.9755455692       -0.2603009708
 H         -1.1219324520        0.3983432330        1.4700964349
 H         -2.8175031501       -1.0287626788        0.4574479974
 H         -2.0729593282       -0.7616438935       -1.1921372928
  15
  -15.7712992700000       6.823420880211585E-002 !
 C          1.6509456490       -0.9694164123        0.0689806436
 C          1.3522923618        0.5024801613       -0.1886363957
 C         -0.0314958221        0.9024761464        0.3347965652
 C         -1.1269705115        0.2028767325       -0.4040269477
 C         -2.0472071032       -0.5587981782        0.1571713707
 H          1.6331093928       -1.1792643259        1.1361032476
 H          2.6320912036       -1.2339522956       -0.3178452956
 H          0.9059685263       -1.5976324816       -0.4143468877
 H          2.1096602643        1.1177596405        0.3013165086
 H          1.4024666858        0.7018425739       -1.2613639981
 H         -0.1560206762        1.9814995118        0.2055184724
 H         -0.1001608211        0.6768492123        1.4005447254
 H         -1.1264973798        0.3539567707       -1.4764303490
 H         -2.8197769185       -1.0415197785       -0.4169944854
 H         -2.0685968604       -0.7282812738        1.2214147722
  15
  -15.7712991100000       6.822265696597014E-002 !
 C          1.6500851843       -0.9693981525        0.0688436363
 C          1.3526484347        0.5027958246       -0.1880127906
 C         -0.0315082125        0.9028601230        0.3342203212
 C         -1.1266270880        0.2023315743       -0.4042800330
 C         -2.0471031370       -0.5587765876        0.1575087198
 H          0.9064136466       -1.5968228373       -0.4175228861
 H          1.6285912865       -1.1802548575        1.1357420877
 H          2.6324847304       -1.2335747405       -0.3151485254
 H          2.1099952018        1.1174578657        0.3027762639
 H          1.4035841483        0.7026112704       -1.2605442787
 H         -0.1559987050        1.9817870639        0.2042138542
 H         -0.1005123702        0.6781218461        1.4000425259
 H         -1.1251223553        0.3515105161       -1.4768932685
 H         -2.8181812721       -1.0437950031       -0.4166690557
 H         -2.0681840043       -0.7280992522        1.2219841315
  15
  -15.7712989000000       6.820749814899214E-002 !
 C          1.6514597524       -0.9687292781        0.0690307450
 C          1.3531142201        0.5032882604       -0.1881765887
 C         -0.0314959138        0.9014029529        0.3343384328
 C         -1.1265693753        0.2010432414       -0.4043755376
 C         -2.0491649719       -0.5572244402        0.1574523105
 H          2.6335498077       -1.2323904812       -0.3159543826
 H          0.9077548593       -1.5970294065       -0.4162160819
 H          1.6315137031       -1.1792990740        1.1359810824
 H          2.1098957185        1.1186904115        0.3026994869
 H          1.4039578726        0.7030835998       -1.2607951067
 H         -0.1569778566        1.9802083009        0.2046873272
 H         -0.1005147878        0.6763628617        1.4001628503
 H         -1.1243075044        0.3494235175       -1.4771271952
 H         -2.8163655094       -1.0474617891       -0.4176958258
 H         -2.0736310649       -0.7222642133        1.2223637140
  15
  -15.7712109900000       6.214861878558197E-002 !
 C          2.4181295597       -0.3061567736       -0.2613760415
 C          1.0972516749       -0.1322953655        0.4780859137
 C         -0.0359959019        0.2637485130       -0.4739720417
 C         -1.3234628495        0.4555799308        0.2608974329
 C         -2.4287170259       -0.2286737942        0.0321767634
 H          3.2071557341       -0.5905450700        0.4304664467
 H          2.7064645301        0.6219198102       -0.7501165378
 H          2.3308358118       -1.0802890488       -1.0204445099
 H          0.8315629968       -1.0660939189        0.9786935084
 H          1.2072907098        0.6365028028        1.2461240667
 H         -0.1567094390       -0.5046840762       -1.2398412667
 H          0.2346992717        1.2000677174       -0.9705545557
 H         -1.3023990811        1.2098547996        1.0375655448
 H         -3.3326667159       -0.0606024287        0.5924668023
 H         -2.4755832152       -0.9881816032       -0.7310996579
  15
  -15.7712109800000       6.214796113552912E-002 !
 C          2.4182030143       -0.3062679380       -0.2613776617
 C          1.0972133822       -0.1322991912        0.4780306497
 C         -0.0360717510        0.2639860232       -0.4739738756
 C         -1.3235630290        0.4556747956        0.2608476982
 C         -2.4286585726       -0.2287150041        0.0321789687
 H          2.7068682444        0.6211027767       -0.7513442364
 H          2.3304823752       -1.0811097405       -1.0195878276
 H          3.2074353828       -0.5902565195        0.4303832743
 H          0.8311971054       -1.0656568033        0.9794212235
 H          1.2077495271        0.6369209984        1.2455131330
 H         -0.1567916857       -0.5045645063       -1.2396804660
 H          0.2345553974        1.2002684132       -0.9707542779
 H         -1.3028094213        1.2103951236        1.0369812052
 H         -3.3322918096       -0.0615331028        0.5931688166
 H         -2.4747624642       -0.9897169753       -0.7295749466
  15
  -15.7712109500000       6.214598822735904E-002 !
 C          2.4180291254       -0.3059340004       -0.2612953301
 C          1.0969039665       -0.1331011241        0.4779881958
 C         -0.0359254795        0.2644342285       -0.4739843307
 C         -1.3234902643        0.4558636187        0.2608065379
 C         -2.4282988644       -0.2290679674        0.0322986643
 H          2.3309470259       -1.0789739484       -1.0215286152
 H          3.2067529784       -0.5914169845        0.4304525782
 H          2.7066796101        0.6228113037       -0.7486062889
 H          0.8309324147       -1.0676147998        0.9771188225
 H          1.2067127075        0.6345421406        1.2472340971
 H         -0.1566504967       -0.5031098088       -1.2407485828
 H          0.2351845635        1.2012530457       -0.9693858166
 H         -1.3025908674        1.2097099256        1.0379286486
 H         -3.3323348695       -0.0613248642        0.5925316443
 H         -2.4751376859       -0.9878346137       -0.7317570278
  15
  -15.7712102300000       6.209865721414622E-002 !
 C          2.4140873443       -0.4164009212        0.0734244627
 C          1.1064000054        0.1694420459       -0.4447261796
 C         -0.0456497063       -0.0647236587        0.5379029495
 C         -1.3211843795        0.5293825686        0.0335452083
 C         -2.4261664200       -0.1526689956       -0.2027050495
 H          2.6886344188        0.0419129277        1.0210014952
 H          3.2170639851       -0.2425026705       -0.6385804725
 H          2.3169946260       -1.4887990085        0.2270719178
 H          1.2269491369        1.2425032313       -0.6093872527
 H          0.8543626766       -0.2875489618       -1.4043396273
 H          0.2100882212        0.3990226731        1.4950402958
 H         -0.1749221084       -1.1360387751        0.7029085139
 H         -1.2911417031        1.5959299785       -0.1509595066
 H         -3.3195979703        0.3164536351       -0.5781819374
 H         -2.4811337143       -1.2158502413       -0.0340847569
  15
  -15.7712102100000       6.209734297848689E-002 !
 C          2.4142708329       -0.4162177420        0.0736046611
 C          1.1061601897        0.1676642651       -0.4456426134
 C         -0.0454816550       -0.0624894100        0.5383801810
 C         -1.3210480878        0.5294543176        0.0315983603
 C         -2.4259233549       -0.1536472601       -0.2020901259
 H          3.2166780276       -0.2453796400       -0.6398007715
 H          2.3171187849       -1.4879527945        0.2317909773
 H          2.6896449127        0.0459756674        1.0190298189
 H          1.2266243149        1.2400549287       -0.6146595475
 H          0.8534194623       -0.2931064896       -1.4032503014
 H          0.2105961776        0.4049946054        1.4936030163
 H         -0.1747143017       -1.1331267793        0.7076588997
 H         -1.2923201476        1.5959844517       -0.1531966367
 H         -3.3218666305        0.3152921664       -0.5716841861
 H         -2.4837348076       -1.2144732930       -0.0200449185
  15
  -15.7712101900000       6.209602877064162E-002 !
 C          2.4145824130       -0.4153221345        0.0745248557
 C          1.1055728780        0.1650290626       -0.4466522755
 C         -0.0454317670       -0.0600734321        0.5392865654
 C         -1.3213015402        0.5297891083        0.0308635872
 C         -2.4257413475       -0.1545415011       -0.2014874793
 H          2.3176550066       -1.4859874550        0.2397101964
 H          2.6909831128        0.0531250372        1.0166158460
 H          3.2162223307       -0.2490978049       -0.6408554416
 H          1.2252755115        1.2365506489       -0.6217965024
 H          0.8523508946       -0.3014669375       -1.4013717712
 H          0.2118650549        0.4117585531        1.4920081199
 H         -0.1747924021       -1.1298425093        0.7135572277
 H         -1.2920806011        1.5952035830       -0.1597787282
 H         -3.3215053820        0.3127227883       -0.5736853024
 H         -2.4809852081       -1.2160964617       -0.0231173336
  15
  -15.7701794800000       2.086326658364539E-002 !
 C          1.9559983937       -0.7969285082       -0.1217813014
 C          1.2163998567        0.4191202262        0.4237787435
 C         -0.0384694866        0.7742068459       -0.3866705747
 C         -1.1039344466       -0.2693905918       -0.2737237850
 C         -2.2549729573       -0.0923383829        0.3475868296
 H          2.8734854767       -0.9610012829        0.4386032240
 H          2.2149812622       -0.6474572133       -1.1678031974
 H          1.3456992429       -1.6924835645       -0.0408881893
 H          0.9285896506        0.2365976059        1.4614411864
 H          1.8889378364        1.2796668140        0.4106397512
 H          0.2431644245        0.8892367434       -1.4366484618
 H         -0.4302190992        1.7288840379       -0.0300578975
 H         -0.8808441516       -1.2218200477       -0.7354251065
 H         -2.9955547273       -0.8711127637        0.4151378878
 H         -2.5073690111        0.8463629272        0.8138150339
  15
  -15.7701794200000       2.086194198163998E-002 !
 C          1.9589540954       -0.7956406952       -0.1208723166
 C          1.2171146623        0.4199393249        0.4226719909
 C         -0.0387089269        0.7708772246       -0.3880849177
 C         -1.1042702051       -0.2719065149       -0.2690877210
 C         -2.2583166869       -0.0888854499        0.3448848513
 H          2.2179261243       -0.6473098220       -1.1670637685
 H          1.3503600759       -1.6922447866       -0.0387863243
 H          2.8766081488       -0.9571361479        0.4399817343
 H          0.9301869903        0.2389660534        1.4608614180
 H          1.8880373395        1.2817169825        0.4075189544
 H          0.2417357046        0.8806828053       -1.4389791960
 H         -0.4301410415        1.7273472765       -0.0359694271
 H         -0.8784861281       -1.2291484196       -0.7193596482
 H         -2.9989767597       -0.8671847910        0.4168957359
 H         -2.5134193380        0.8545885363        0.7998780627
  15
  -15.7701794100000       2.086172122283508E-002 !
 C          1.9559285796       -0.7969910855       -0.1217332060
 C          1.2164920497        0.4192170980        0.4236868382
 C         -0.0385016621        0.7742385411       -0.3866264311
 C         -1.1039006548       -0.2694153311       -0.2736690422
 C         -2.2550114579       -0.0923676849        0.3475095248
 H          1.3457465926       -1.6925673117       -0.0401759761
 H          2.8737271953       -0.9607420487        0.4382430375
 H          2.2143637050       -0.6479148011       -1.1679447048
 H          0.9289717960        0.2369539339        1.4614836571
 H          1.8890817350        1.2797164339        0.4101526062
 H          0.2429625790        0.8892670625       -1.4366511225
 H         -0.4302710827        1.7289039842       -0.0299763899
 H         -0.8805312001       -1.2220251844       -0.7348591116
 H         -2.9954811561       -0.8712384452        0.4152058759
 H         -2.5075264121        0.8463772557        0.8136012335
  15
  -15.7701768300000       2.080484342469101E-002 !
 C          1.9567233414       -0.7222699677        0.3445361933
 C          1.2098192444        0.2610119092       -0.5491173290
 C         -0.0351728927        0.8585497044        0.1221947470
 C         -1.1000529180       -0.1643959875        0.3603960028
 C         -2.2560732592       -0.1958692213       -0.2758337305
 H          2.2284804693       -0.2502683857        1.2863144012
 H          2.8673222634       -1.0584214720       -0.1459149065
 H          1.3458082277       -1.5952329667        0.5584596734
 H          1.8820051050        1.0791705083       -0.8171037518
 H          0.9092995917       -0.2396669005       -1.4721037772
 H         -0.4328931134        1.6510606371       -0.5148193365
 H          0.2596055014        1.3009603991        1.0773560670
 H         -0.8717553082       -0.9177439599        1.1022910145
 H         -2.9960881334       -0.9538951381       -0.0827700781
 H         -2.5135609344        0.5428260684       -1.0176373814
  15
  -15.7701755000000       2.077558330113258E-002 !
 C          1.9565198506       -0.7226104534        0.3444365157
 C          1.2099159896        0.2611948528       -0.5488966043
 C         -0.0352498576        0.8588528938        0.1219861068
 C         -1.0999797402       -0.1641691992        0.3605344750
 C         -2.2559324439       -0.1962072936       -0.2758722050
 H          2.8675283855       -1.0582888157       -0.1456129309
 H          1.3456660955       -1.5958349547        0.5574763165
 H          2.2275603944       -0.2510684192        1.2866397729
 H          1.8822614015        1.0793526362       -0.8164614019
 H          0.9095442118       -0.2391602873       -1.4720923860
 H         -0.4331301133        1.6510988372       -0.5152925993
 H          0.2593974142        1.3015967181        1.0770166724
 H         -0.8717823166       -0.9168945594        1.1030961018
 H         -2.9956767160       -0.9545024241       -0.0827951601
 H         -2.5135059414        0.5420805822       -1.0180502738
  15
  -15.7701754400000       2.077426426607118E-002 !
 C          1.9546806389       -0.7235777487        0.3443975198
 C          1.2095864424        0.2612860638       -0.5490348715
 C         -0.0351154250        0.8602529314        0.1215730145
 C         -1.0997103450       -0.1624153006        0.3622838596
 C         -2.2540287609       -0.1982618194       -0.2768685668
 H          1.3429192746       -1.5964328131        0.5563146106
 H          2.2252600527       -0.2528688514        1.2871431777
 H          2.8658615356       -1.0596728948       -0.1450317161
 H          1.8829366387        1.0787615200       -0.8161431241
 H          0.9089936099       -0.2385314870       -1.4724587823
 H         -0.4331620955        1.6514130934       -0.5169496756
 H          0.2600348878        1.3045873052        1.0756970098
 H         -0.8727792114       -0.9115667955        1.1088372200
 H         -2.9937273664       -0.9561577493       -0.0820755744
 H         -2.5101278913        0.5361868063       -1.0233473971
  15
  -15.7700021800000       1.729421560483334E-002 !
 C          2.3515383463       -0.2890183828       -0.0553991638
 C          0.8495815953       -0.5429132168        0.0052319819
 C          0.0642334931        0.7642685991       -0.0468486552
 C         -1.4253733338        0.6216634721        0.0082647275
 C         -2.1130460081       -0.5018926418        0.0941152182
 H          2.6686247257        0.3278152335        0.7827376421
 H          2.6150814678        0.2244552398       -0.9775492770
 H          2.8991842026       -1.2274853564       -0.0168849772
 H          0.5558752823       -1.1757826339       -0.8345085964
 H          0.6097536928       -1.0729868807        0.9290360654
 H          0.3196817942        1.3016666303       -0.9659371232
 H          0.3744217837        1.4041749719        0.7856760040
 H         -1.9561388392        1.5658318473       -0.0292461501
 H         -3.1893992081       -0.4996043662        0.1279063136
 H         -1.6432006882       -1.4690074754        0.1348507727
  15
  -15.7700008600000       1.727007561066448E-002 !
 C          2.3514590314       -0.2890873760       -0.0556867316
 C          0.8495184097       -0.5428795534        0.0057251008
 C          0.0642367684        0.7643306195       -0.0465964935
 C         -1.4254116739        0.6216311939        0.0068925941
 C         -2.1128663384       -0.5018789700        0.0949819210
 H          2.6146208039        0.2240536823       -0.9781189503
 H          2.8990399304       -1.2275745659       -0.0171827778
 H          2.6690264336        0.3280548110        0.7820072515
 H          0.5552954388       -1.1759711315       -0.8336895769
 H          0.6100259827       -1.0726600715        0.9298142127
 H          0.3205297436        1.3020396870       -0.9652371138
 H          0.3736005594        1.4040373731        0.7863724269
 H         -1.9562999862        1.5656251850       -0.0334508320
 H         -3.1892593370       -0.4998688616        0.1274913376
 H         -1.6427204324       -1.4687552301        0.1386433083
  15
  -15.7699998900000       1.725235785362562E-002 !
 C          2.3514171441       -0.2891865073       -0.0556324992
 C          0.8494364864       -0.5428388579        0.0055919536
 C          0.0642170510        0.7643981097       -0.0463859850
 C         -1.4254136257        0.6216549586        0.0067247925
 C         -2.1127027198       -0.5018912830        0.0950402906
 H          2.8988403358       -1.2278817188       -0.0190488218
 H          2.6693333597        0.3263649893        0.7831425554
 H          2.6142098868        0.2257004648       -0.9772479425
 H          0.5551121296       -1.1756305862       -0.8340394362
 H          0.6099459611       -1.0729027998        0.9295113455
 H          0.3206520555        1.3023196768       -0.9648330295
 H          0.3733883399        1.4039135315        0.7867856262
 H         -1.9563620315        1.5656193115       -0.0331577991
 H         -3.1890006159       -0.4998715531        0.1287529904
 H         -1.6424764283       -1.4688947914        0.1365197159
  15
  -15.7688653500000       5.193378484746965E-003 !
 C          1.6098269941       -0.9528543982       -0.2583379977
 C          1.1415383564        0.2955094830        0.4812233203
 C          0.0427524637        1.0381047823       -0.2778219536
 C         -1.2921264810        0.3578123645       -0.3378718565
 C         -1.7088237583       -0.6587508797        0.3940462913
 H          2.3732674292       -1.4726197380        0.3157248555
 H          2.0313544036       -0.6835187176       -1.2244598591
 H          0.7796965439       -1.6336051699       -0.4278869034
 H          0.7851323682        0.0282589102        1.4770125622
 H          1.9906885155        0.9706858871        0.6092344963
 H          0.3799452459        1.2213164405       -1.3021353346
 H         -0.1114427744        2.0196915248        0.1830780651
 H         -1.9700600364        0.7969899517       -1.0606159987
 H         -2.7013400428       -1.0611082069        0.2800170770
 H         -1.0926030986       -1.1372511333        1.1352812294
  15
  -15.7688653300000       5.193268573784260E-003 !
 C          1.6097537572       -0.9528213191       -0.2583419337
 C          1.1415510028        0.2955454466        0.4812689176
 C          0.0427784354        1.0381055743       -0.2778227917
 C         -1.2920376541        0.3576735764       -0.3380260895
 C         -1.7088712147       -0.6586959936        0.3941389568
 H          2.0310884326       -0.6835832469       -1.2245793683
 H          0.7796161709       -1.6336155450       -0.4276546125
 H          2.3733061836       -1.4725024536        0.3156296019
 H          0.7851803011        0.0283590410        1.4770928518
 H          1.9907331227        0.9706898791        0.6092108535
 H          0.3800528544        1.2213973216       -1.3020946595
 H         -0.1114495594        2.0196633984        0.1831333166
 H         -1.9699138279        0.7967923236       -1.0608205910
 H         -2.7014371283       -1.0609856972        0.2801588334
 H         -1.0926184485       -1.1372076440        1.1354211544
  15
  -15.7688652700000       5.192938854842905E-003 !
 C          1.6098694667       -0.9528357659       -0.2583559074
 C          1.1414634931        0.2954610127        0.4812535337
 C          0.0427702685        1.0380962535       -0.2778659664
 C         -1.2921242274        0.3578360432       -0.3378352665
 C         -1.7088105934       -0.6587466435        0.3940431580
 H          0.7797190770       -1.6335150260       -0.4280387656
 H          2.3732116053       -1.4726781473        0.3157658182
 H          2.0315184641       -0.6834896994       -1.2244234038
 H          0.7850197919        0.0282318883        1.4770441436
 H          1.9905853272        0.9706507860        0.6092755684
 H          0.3799515805        1.2211650994       -1.3022033205
 H         -0.1113283336        2.0197582913        0.1828959897
 H         -1.9701760941        0.7972629468       -1.0602906460
 H         -2.7014506585       -1.0608719669        0.2802292427
 H         -1.0924221265       -1.1375498750        1.1349747382
  15
  -15.7688619500000       5.174726996112200E-003 !
 C          1.6204207728       -0.9421854766        0.2297430957
 C          1.1193037678        0.2731345757       -0.5425935666
 C          0.0537426942        1.0492393838        0.2301916095
 C         -1.2765470731        0.3732726292        0.3777308518
 C         -1.7236618460       -0.6735956846       -0.2907877339
 H          2.0834942282       -0.6312747297        1.1638186039
 H          2.3584433327       -1.4875131734       -0.3537564852
 H          0.7989368310       -1.6138306648        0.4649785429
 H          1.9614863055        0.9412101622       -0.7367350276
 H          0.7202888579       -0.0370656695       -1.5093409957
 H         -0.1212112556        2.0099591402       -0.2659730373
 H          0.4348632376        1.2766102216        1.2299524094
 H         -1.9229634299        0.8440212449        1.1094110748
 H         -2.7099808740       -1.0696165032       -0.1165834283
 H         -1.1397999559       -1.1841854895       -1.0368233414
  15
  -15.7688619000000       5.174453209881376E-003 !
 C          1.6204292388       -0.9421315151        0.2296679379
 C          1.1193265046        0.2732069637       -0.5426869659
 C          0.0538817331        1.0489684596        0.2305339995
 C         -1.2767298613        0.3735111547        0.3774308045
 C         -1.7236707085       -0.6736765586       -0.2906930728
 H          0.7990394121       -1.6138263421        0.4651150347
 H          2.0838596947       -0.6313821770        1.1636330368
 H          2.3582108781       -1.4873993334       -0.3541583691
 H          1.9614176241        0.9414057682       -0.7368784948
 H          0.7200857817       -0.0368225836       -1.5094091687
 H         -0.1206499976        2.0099496829       -0.2651935154
 H          0.4349059064        1.2757797657        1.2304790915
 H         -1.9234983765        0.8448634037        1.1084121011
 H         -2.7101535990       -1.0693970716       -0.1167832463
 H         -1.1394049345       -1.1850123978       -1.0358921616
  15
  -15.7688610900000       5.170019890585958E-003 !
 C          1.6193362199       -0.9417976983        0.2306376069
 C          1.1194955895        0.2731828485       -0.5428375980
 C          0.0534876271        1.0499453543        0.2286057098
 C         -1.2749129859        0.3710557638        0.3800896596
 C         -1.7238703271       -0.6727255539       -0.2919137814
 H          2.3584470085       -1.4872403595       -0.3512866301
 H          0.7972851050       -1.6132977258        0.4640441721
 H          2.0802697850       -0.6308009825        1.1657289275
 H          1.9619293396        0.9409676746       -0.7365683966
 H          0.7216710795       -0.0377022209       -1.5098148248
 H         -0.1239783457        2.0083656004       -0.2710298738
 H          0.4353019589        1.2818243598        1.2269633012
 H         -1.9191765462        0.8382875859        1.1159013408
 H         -2.7092206449       -1.0704004863       -0.1159312959
 H         -1.1422818513       -1.1792495221       -1.0426015469
  15
  -15.7688224900000       4.963098359372083E-003 !
 C          1.9772445911       -0.8237427837       -0.0299422625
 C          1.3294389418        0.5318776207        0.2298490805
 C         -0.0497983176        0.6496094121       -0.4195899382
 C         -1.0965216674       -0.1788909244        0.2662846138
 C         -2.3841419824       -0.1363738447       -0.0229047613
 H          1.3542086112       -1.6312364907        0.3467341074
 H          2.9466475231       -0.8824662944        0.4592661839
 H          2.1210159078       -0.9760284254       -1.0975758326
 H          1.2365100454        0.6952709356        1.3059106265
 H          1.9772066456        1.3159399925       -0.1683252379
 H          0.0214311736        0.3424908075       -1.4671317731
 H         -0.3674873319        1.6955137171       -0.4152659255
 H         -0.7452796137       -0.8380813597        1.0486011964
 H         -3.1076836960       -0.7388205035        0.4989776609
 H         -2.7700001475        0.5112273371       -0.7935639471
  15
  -15.7688214500000       4.957639361718569E-003 !
 C          1.9797112036       -0.8224988847       -0.0300805757
 C          1.3287043930        0.5313753150        0.2309657426
 C         -0.0499607887        0.6485261680       -0.4198265616
 C         -1.0971391458       -0.1810330172        0.2642566631
 C         -2.3854859209       -0.1333827581       -0.0210246879
 H          2.1255204206       -0.9717920716       -1.0978099794
 H          1.3578576605       -1.6323201155        0.3435955206
 H          2.9484662311       -0.8804815341        0.4605304796
 H          1.2334107387        0.6919344575        1.3071622668
 H          1.9757462113        1.3177044991       -0.1640390594
 H          0.0235497453        0.3424188578       -1.4675088434
 H         -0.3686697235        1.6940526590       -0.4153861044
 H         -0.7452177983       -0.8476120029        1.0399825214
 H         -3.1072370729       -0.7483039860        0.4885036597
 H         -2.7721882724        0.5221633950       -0.7844797643
