  15
    -0.226476 !GC
 C          0.0000000000        0.0000000000        0.0000000000
 C          1.5167773038        0.0000000000        0.0000000000
 O          2.0419797566        1.3202712626        0.0000000000
 C          1.5161559676        2.0727651838        1.0850932614
 C          0.0068196704        2.1893945965        1.0112884529
 N         -0.5608832719        1.3416141418       -0.1153267656
 H         -0.3476872506       -0.4341640743        0.9419268187
 H         -0.3503934730       -0.6088663906       -0.8340897976
 H          1.8851611840       -0.5541718052        0.8782174814
 H          1.8961025998       -0.4656621791       -0.9128895951
 H          1.8009000647        1.6023163089        2.0401155150
 H          1.9775754007        3.0604567811        1.0107535851
 H         -0.4123782209        1.8264927061        1.9543702683
 H         -0.2611490041        3.2371370095        0.8717414409
 H         -0.2636196336        1.7614634821       -0.9924733082
  15
    -0.119879 !GC
 C          0.0000000000        0.0000000000        0.0000000000
 C          1.5161127891        0.0000000000        0.0000000000
 O          2.0437076605        1.3197150328        0.0000000000
 C          1.5825188201        2.0475371110       -1.1300638428
 C          0.0684459633        2.0967365531       -1.1860921044
 N         -0.5595941834        1.3463324836       -0.0316032476
 H         -0.3527659842       -0.5129562581        0.8952216213
 H         -0.3446710558       -0.5358622826       -0.8892192359
 H          1.8949017726       -0.4687931748        0.9113411705
 H          1.8842488117       -0.5520252025       -0.8799900721
 H          1.9904115847        3.0549189096       -1.0177951318
 H          1.9699751756        1.5927289861       -2.0556291180
 H         -0.2489886272        3.1399582626       -1.1886337281
 H         -0.2592482117        1.6119770748       -2.1104329985
 H         -0.3059085065        1.8395376827        0.8209399549
  15
    -0.016811 !GC
 C          0.0000000000        0.0000000000        0.0000000000
 C          1.5112829142        0.0000000000        0.0000000000
 O          2.0375445127        1.3167579737        0.0000000000
 C          1.5464439587        2.0379174152       -1.1175835157
 C          0.0358280362        2.0520100955       -1.1552058527
 N         -0.4707917709        1.3787107441        0.0357206276
 H         -0.3449096286       -0.5170123668        0.8960080255
 H         -0.3383041376       -0.5487005016       -0.8972642763
 H          1.8771223910       -0.4662060809        0.9140515545
 H          1.8741576360       -0.5551041537       -0.8803307393
 H          1.9192082437        3.0550328813       -1.0018457140
 H          1.9273041467        1.5981503965       -2.0532806550
 H         -0.2983098324        3.0901223822       -1.1505536906
 H         -0.2849934816        1.5639900645       -2.0931073652
 H         -1.4833744026        1.4081709950        0.0849088809
