  15
  -20.1386986000000       0.427878980562386      !
 C         -0.7386742010       -1.1914777207       -0.2310857295
 C          0.7272479847       -1.1715226996        0.2202521130
 O          1.3861941511        0.0013885751       -0.2327425281
 C          0.7247322050        1.1729027869        0.2202723576
 C         -0.7412240911        1.1900649065       -0.2310807811
 N         -1.4567710278       -0.0014571057        0.2028218462
 H         -1.2400717806       -2.0748485290        0.1644759036
 H         -0.7763999559       -1.2174179146       -1.3236204754
 H          0.7815750660       -1.2159626120        1.3199071515
 H          1.2864759791       -2.0060860439       -0.2030524546
 H          0.7789856507        1.2175188354        1.3199275852
 H          1.2821803462        2.0086336172       -0.2030351531
 H         -1.2445052017        2.0723853173        0.1644614340
 H         -0.7790176260        1.2158817988       -1.3236096302
 H         -1.5162955814       -0.0015073842        1.2183557088
  15
  -20.1386960800000       0.426739496627881      !
 C         -0.7420417573       -1.1915546664        0.2203088249
 C          0.7302848274       -1.1714140676       -0.2096646809
 O          1.3826997903        0.0014243915        0.2528636098
 C          0.7279019543        1.1729303308       -0.2096871015
 C         -0.7444771567        1.1900095058        0.2203382845
 N         -1.4536108301       -0.0014879670       -0.2240323962
 H         -0.7956272029       -1.2174868919        1.3121960414
 H         -1.2376876229       -2.0749046647       -0.1825313575
 H          1.2833424991       -2.0059247364        0.2216371489
 H          0.8006870263       -1.2159573705       -1.3083454117
 H          1.2791683242        2.0086054137        0.2217904231
 H          0.7981463001        1.2174623419       -1.3084681032
 H         -0.7982880758        1.2158514270        1.3122037347
 H         -1.2419930383        2.0722815010       -0.1824585394
 H         -1.4983356774       -0.0015152331       -1.2403423289
  15
  -20.1370166200000       7.216663647567982E-002 !
 C         -0.7338716693       -1.1930298368        0.2326289854
 C          0.7239358564       -1.1639785463       -0.2280688190
 O          1.3827358934        0.0014230049        0.2342832373
 C          0.7215492880        1.1654696111       -0.2280868026
 C         -0.7363045769        1.1915084081        0.2326485290
 N         -1.3949029947       -0.0014301777       -0.2775372956
 H         -0.7529885649       -1.2405882840        1.3358178398
 H         -1.2289741300       -2.0758831919       -0.1722604310
 H          1.2827667422       -2.0061501311        0.1806169660
 H          0.7569976617       -1.1906775102       -1.3258671050
 H          1.2786533646        2.0087796175        0.1805951097
 H          0.7545719204        1.1922431735       -1.3258835469
 H         -0.7555290196        1.2390015857        1.3358426136
 H         -1.2332040566        2.0733539789       -0.1722367519
 H         -2.3726663568       -0.0024310270       -0.0074270418
  15
  -20.1370139300000       7.196150305969799E-002 !
 C         -0.7297686087       -1.1928457980       -0.2447625448
 C          0.7202285463       -1.1641081399        0.2400368070
 O          1.3864977333        0.0013330761       -0.2113064164
 C          0.7175608516        1.1653022807        0.2399643959
 C         -0.7325078506        1.1916401283       -0.2447133198
 N         -1.3994490392       -0.0013479438        0.2543724340
 H         -1.2315636231       -2.0757209911        0.1518414301
 H         -0.7305049528       -1.2403187055       -1.3481262023
 H          0.7352378980       -1.1910798786        1.3381954390
 H          1.2857694979       -2.0061932283       -0.1595286539
 H          0.7325997867        1.1921657270        1.3380597998
 H          1.2811644804        2.0085708172       -0.1594727845
 H         -1.2362722143        2.0733914837        0.1518912571
 H         -0.7333514723        1.2392116227       -1.3481170476
 H         -2.3724227880       -0.0023183571       -0.0325494176
  15
  -20.1324717500000       5.883812547353677E-004 !
 C         -0.7884102631       -1.1942590242        0.1932692296
 C          0.7627395979       -1.1713202463        0.2348799850
 O          1.2585512394        0.0000391732       -0.3917993602
 C          0.7623652140        1.1782643972        0.2218594330
 C         -0.7892722408        1.1865380189        0.2088217576
 N         -1.3168245302        0.0003053069       -0.4449822574
 H         -1.1943932517       -1.2307879081        1.2075042531
 H         -1.1476682794       -2.0635775120       -0.3566613899
 H          1.1310804156       -1.2124834753        1.2699456042
 H          1.1957000682       -1.9969498000       -0.3303167357
 H          1.1493027941        1.2434383239        1.2489521537
 H          1.1768395457        1.9965405492       -0.3675048930
 H         -1.1777987379        1.1969821396        1.2304279344
 H         -1.1663293698        2.0640293035       -0.3157049640
 H         -1.0185844409        0.0072010003       -1.4177586761
  15
  -20.1324687000000       5.864853188160461E-004 !
 C         -0.7712766807       -1.1782555948       -0.2656828669
 C          0.7759939096       -1.1867198841       -0.1567135962
 O          1.2400514054        0.0088386375        0.4491135217
 C          0.7671246827        1.1618382709       -0.2270941354
 C         -0.7841064482        1.2020393775       -0.2085418010
 N         -1.3373399627       -0.0065475114        0.3815762324
 H         -1.1946008380       -2.0681551193        0.1993975555
 H         -1.0791742209       -1.1523293448       -1.3140827554
 H          1.1314181690       -1.9852449863        0.4953326880
 H          1.2410275138       -1.2976300007       -1.1469415077
 H          1.2009782393        2.0040545834        0.3121295966
 H          1.1501556761        1.1595856404       -1.2575020241
 H         -1.1430145141        2.0562921989        0.3646441515
 H         -1.1717667587        1.2779755354       -1.2278427138
 H         -1.0885063944       -0.0307789477        1.3678170427
  15
  -20.1292589900000       1.964158635421148E-005 !
 C         -0.6736184334       -1.1710694916        0.3573815558
 C          0.6520105137       -1.1207693680       -0.3922775424
 O          1.4444219994       -0.0062177062        0.0009438844
 C          0.6782475636        1.1438397330        0.3451039199
 C         -0.6784435888        1.1496935967       -0.3604599684
 N         -1.4889179874       -0.0090197288        0.0012534743
 H         -0.4573533064       -1.2214178453        1.4352873875
 H         -1.2196129570       -2.0747964055        0.0745195386
 H          1.2564900328       -2.0027694441       -0.1726137894
 H          0.4622844848       -1.0795089865       -1.4726766681
 H          0.5328259248        1.1658744925        1.4357662178
 H          1.2785813886        2.0089894497        0.0551094446
 H         -1.2162117313        2.0659579287       -0.1200949895
 H         -0.5103510305        1.1268798337       -1.4429280075
 H         -2.1041288294        0.2146367198        0.7740384558
  15
  -20.1292589600000       1.964096282537025E-005 !
 C         -0.6760507566       -1.1511645299       -0.3602848892
 C          0.6806184741       -1.1423645506        0.3453006875
 O          1.4444026438        0.0090808616        0.0005215262
 C          0.6496281903        1.1221937654       -0.3921060902
 C         -0.6759715648        1.1695292608        0.3577537709
 N         -1.4888985259        0.0061464382        0.0007765024
 H         -1.2119688604       -2.0684096062       -0.1194959619
 H         -0.5079117847       -1.1284964225       -1.4427655643
 H          0.5352480956       -1.1643099306        1.4359738061
 H          1.2826113039       -2.0064534149        0.0555252400
 H          1.2522039833        2.0053923612       -0.1720657210
 H          0.4599127114        1.0809751624       -1.4725319531
 H         -0.4597355286        1.2196474397        1.4356923955
 H         -1.2237628839        2.0723365207        0.0754818650
 H         -2.1043733464       -0.2187178264        0.7730165297
  15
  -20.1292578400000       1.961769857282114E-005 !
 C         -0.6721395363       -1.1498270715        0.3718254068
 C          0.6768109398       -1.1436499492       -0.3484053538
 O          1.4443166381        0.0091405820       -0.0165275278
 C          0.6539500627        1.1235747280        0.3811177201
 C         -0.6798513840        1.1683384282       -0.3542468414
 N         -1.4888923313        0.0060049679        0.0149645413
 H         -0.4921403741       -1.1227947563        1.4522711383
 H         -1.2106509661       -2.0680302915        0.1406345301
 H          1.2819573843       -2.0066297873       -0.0619300181
 H          0.5195077551       -1.1697849751       -1.4373152595
 H          0.4761109699        1.0859679405        1.4636859609
 H          1.2541451429        2.0059842699        0.1515428428
 H         -1.2245823373        2.0720039582       -0.0688189695
 H         -0.4754138044        1.2151411565       -1.4346059083
 H         -2.1119340523       -0.2217612340       -0.7503419596
  15
  -20.1292577800000       1.961645305148646E-005 !
 C         -0.6774269527       -1.1697358653       -0.3542541209
 C          0.6562362454       -1.1222530825        0.3811245332
 O          1.4442699233       -0.0061712364       -0.0165336780
 C          0.6744733302        1.1450735785       -0.3484044290
 C         -0.6744939535        1.1484359218        0.3718788606
 N         -1.4888260150       -0.0090445811        0.0149298051
 H         -1.2202962258       -2.0745056670       -0.0688985184
 H         -0.4728794428       -1.2161787175       -1.4345832300
 H          0.4782467548       -1.0850259952        1.4636827978
 H          1.2582218773       -2.0034343550        0.1515036278
 H          1.2778729549        2.0093342021       -0.0618643980
 H          0.5171815881        1.1706397645       -1.4373659250
 H         -0.4946536702        1.1216675549        1.4523588445
 H         -1.2148906226        2.0655262354        0.1406722050
 H         -2.1122050196        0.2175028663       -0.7504451373
