  16
    -0.172694 !GC
 C          0.0000000000        0.0000000000        0.0000000000
 O          1.4109411958        0.0000000000        0.0000000000
 C          2.1517873919        1.1186156320        0.0000000000
 C          2.4694480481        1.5231579646       -1.3050126793
 C          3.2588211088        2.6261194277       -1.5293498338
 C          3.7525965112        3.3649318823       -0.4617798391
 C          3.4423958206        2.9703834679        0.8230027666
 C          2.6468677021        1.8595794560        1.0684111596
 H         -0.4908101185       -0.9835738512        0.0053355967
 H         -0.2894325917        0.5530246593       -0.8893480043
 H         -0.2900027904        0.5620636262        0.8832540183
 H          2.0783876349        0.9291415800       -2.1148468929
 H          3.4877248094        2.9183919525       -2.5429001062
 H          4.3685686771        4.2330765388       -0.6354011950
 H          3.8172478670        3.5327915258        1.6652791153
 H          2.4492130418        1.6054560508        2.0958009704
  16
    -0.137219 !GC
 C          0.0000000000        0.0000000000        0.0000000000
 O          1.4108286560        0.0000000000        0.0000000000
 C          2.1528752293        1.1177043140        0.0000000000
 C          2.5174664707        1.7320545838        1.2002574823
 C          3.2453329614        2.9061609714        1.1879422816
 C          3.6311457414        3.4916083510       -0.0055959446
 C          3.2722020077        2.8839424768       -1.1963119859
 C          2.5441211626        1.7099164808       -1.2030259669
 H         -0.4906963126        0.5352447035        0.8253091236
 H         -0.3979569880       -1.0153639616       -0.0583879015
 H         -0.1790845082        0.5162421703       -0.9325878008
 H          2.2218500776        1.2969426717        2.1403334184
 H          3.5172671894        3.3634760114        2.1275510280
 H          4.2046738540        4.4050777645       -0.0075765246
 H          3.5615528761        3.3262206117       -2.1377701865
 H          2.2674376713        1.2581562019       -2.1410010859
  16
    -0.022301 !GC
 C          0.0000000000        0.0000000000        0.0000000000
 O          1.4108125068        0.0000000000        0.0000000000
 C          2.1526622883        1.1177907243        0.0000000000
 C          2.5150828762        1.7335274667        1.2001967778
 C          3.2441047375        2.9068781365        1.1878760220
 C          3.6325874381        3.4905493771       -0.0056265547
 C          3.2758222467        2.8815585113       -1.1963089601
 C          2.5470695700        1.7079248169       -1.2029791080
 H         -0.4907918929       -0.9834799556        0.0062101965
 H         -0.2885864805        0.5516048536       -0.8905495241
 H         -0.2905247566        0.5629714103        0.8825124128
 H          2.2160558079        1.3006410663        2.1401985984
 H          3.5124313658        3.3664136397        2.1273675357
 H          4.2043183201        4.4051422260       -0.0076643262
 H          3.5692691408        3.3212730538       -2.1376729926
 H          2.2745294814        1.2534843938       -2.1408986984
  16
    -0.012623 !GC
 C          0.0000000000        0.0000000000        0.0000000000
 O          1.4145351516        0.0000000000        0.0000000000
 C          2.0688964244        1.1993346397        0.0000000000
 C          3.4626383070        1.1272038852        0.0021440676
 C          4.2192126434        2.2803419250        0.0025517671
 C          3.6016740371        3.5221279335        0.0004071356
 C          2.2215180385        3.5943691415       -0.0011403194
 C          1.4493868167        2.4434367719       -0.0009155831
 H         -0.5008586556        0.5297458551        0.8216975272
 H         -0.3948824578       -1.0168183372       -0.0719080466
 H         -0.1753665674        0.5108681841       -0.9375399930
 H          3.9232012093        0.1520452131        0.0016081365
 H          5.2961993183        2.2104767768       -0.0057066905
 H          4.1940091855        4.4238340889       -0.0054830470
 H          1.7305073584        4.5557151337       -0.0032722404
 H          0.3747472172        2.5291688855       -0.0035152002
  16
    -0.012610 !GC
 C          0.0000000000        0.0000000000        0.0000000000
 O          1.4144949048        0.0000000000        0.0000000000
 C          2.0688680870        1.1992755387        0.0000000000
 C          3.4626460243        1.1269788991       -0.0004717275
 C          4.2192899790        2.2801432804       -0.0015279060
 C          3.6016902276        3.5219179029       -0.0021593569
 C          2.2214744777        3.5942633777       -0.0029275564
 C          1.4493053275        2.4433362639       -0.0013348982
 H         -0.3948739914       -1.0164762865        0.0737520186
 H         -0.5004466785        0.5278028783       -0.8234138329
 H         -0.1755927815        0.5121419060        0.9368942451
 H          3.9232735285        0.1516267102        0.0010453782
 H          5.2963349379        2.2102246334       -0.0060166408
 H          4.1939732546        4.4234923918       -0.0067224588
 H          1.7304055015        4.5557193752       -0.0034550290
 H          0.3745900931        2.5291469862       -0.0020119396
  16
    -0.011630 !GC
 C          0.0000000000        0.0000000000        0.0000000000
 O          1.4107988809        0.0000000000        0.0000000000
 C          2.1523076631        1.1179270338        0.0000000000
 C          2.5162883729        1.7324114333        1.2004322510
 C          3.2450982070        2.9059125749        1.1883735264
 C          3.6325796754        3.4904275923       -0.0050799268
 C          3.2739619170        2.8828937544       -1.1959333981
 C          2.5451197340        1.7093147383       -1.2028577012
 H         -0.3837839500        0.4856993020       -0.9015877053
 H         -0.3982219376        0.5015622235        0.8845737661
 H         -0.2905551689       -1.0467127826       -0.0046665658
 H          2.2201242548        1.2973855918        2.1404401031
 H          3.5151486970        3.3641998128        2.1279501035
 H          4.2048154512        4.4047470538       -0.0069029574
 H          3.5643112891        3.3246148715       -2.1372351479
 H          2.2712779770        1.2557515108       -2.1408581135
  16
    -0.011206 !GC
 C          0.0000000000        0.0000000000        0.0000000000
 O          1.4145525625        0.0000000000        0.0000000000
 C          2.0688659544        1.1993271319        0.0000000000
 C          3.4627564746        1.1269587900       -0.0016823716
 C          4.2195011256        2.2800840694       -0.0020773015
 C          3.6019419886        3.5219304194       -0.0016837115
 C          2.2217641724        3.5944001611        0.0002156090
 C          1.4495125779        2.4435303810        0.0011553671
 H         -0.2854321740        0.5674853250        0.8828384681
 H         -0.5015967293       -0.9774683326       -0.0001051895
 H         -0.2861889989        0.5677700887       -0.8823586299
 H          3.9232785118        0.1514981654       -0.0041406146
 H          5.2965062658        2.2101723106       -0.0072556241
 H          4.1942987791        4.4235233913       -0.0051458553
 H          1.7307156027        4.5557652262        0.0018202139
 H          0.3747914122        2.5293557101        0.0021460649
  16
    -0.011091 !GC
 C          0.0000000000        0.0000000000        0.0000000000
 O          1.4145364133        0.0000000000        0.0000000000
 C          2.0686430903        1.1993977793        0.0000000000
 C          3.4625370926        1.1272068498        0.0008986200
 C          4.2191345038        2.2803881196       -0.0008375445
 C          3.6013907501        3.5221016566       -0.0036316469
 C          2.2212159514        3.5944631099       -0.0042784534
 C          1.4491045369        2.4434753733       -0.0025879839
 H         -0.2855589146       -1.0493386062        0.0023733872
 H         -0.3952450353        0.4861183568       -0.8957269160
 H         -0.3958288857        0.4899334435        0.8933391217
 H          3.9232094876        0.1518373436        0.0024976930
 H          5.2960973558        2.2105923797       -0.0018081560
 H          4.1936401628        4.4237684354       -0.0049501952
 H          1.7300860829        4.5557560191       -0.0074794356
 H          0.3743510779        2.5290951919       -0.0065592561
  16
    -0.002437 !GC
 C          0.0000000000        0.0000000000        0.0000000000
 O          1.4109010751        0.0000000000        0.0000000000
 C          2.1517537763        1.1185559376        0.0000000000
 C          2.4671111681        1.5245031246       -1.3051814180
 C          3.2551682764        2.6284530152       -1.5296544082
 C          3.7500700805        3.3664685353       -0.4620347469
 C          3.4406074174        2.9715346240        0.8228767423
 C          2.6463414666        1.8598300411        1.0683953325
 H         -0.3843198206        0.4862298906       -0.9011786504
 H         -0.3979403847        0.5009240727        0.8849878430
 H         -0.2902331887       -1.0469316878       -0.0051223375
 H          2.0777630726        0.9290992418       -2.1150927863
 H          3.4870824532        2.9185220684       -2.5431952443
 H          4.3669164234        4.2338084673       -0.6356747622
 H          3.8167449475        3.5331618518        1.6652582640
 H          2.4503106250        1.6046557885        2.0959182924
  16
    -0.001904 !GC
 C          0.0000000000        0.0000000000        0.0000000000
 O          1.4108700383        0.0000000000        0.0000000000
 C          2.1514288287        1.1186960783        0.0000000000
 C          2.4680088452        1.5238399668       -1.3050235687
 C          3.2562497262        2.6275884420       -1.5294183221
 C          3.7497903117        3.3665551469       -0.4618635773
 C          3.4396858710        2.9719690387        0.8229477540
 C          2.6455735157        1.8601580517        1.0684057451
 H         -0.4905272118        0.5364582948        0.8243670914
 H         -0.3978438671       -1.0153919236       -0.0567766303
 H         -0.1796408872        0.5150054840       -0.9330693837
 H          2.0776296356        0.9292980096       -2.1148293062
 H          3.4836963332        2.9208289079       -2.5430280556
 H          4.3637589948        4.2360782020       -0.6355831997
 H          3.8154774230        3.5337627057        1.6652368274
 H          2.4480320185        1.6059140088        2.0958120661
