  15
  -40.4777962900000       0.337498591643174      !
 C         -0.4649143719       -1.3735636479        0.0006489875
 C          0.2597340689       -0.2263592171       -0.0005234549
 C         -0.4098696920        1.0701309826        0.0002988709
 O          0.1440578400        2.1523385946        0.0020145418
 N         -1.7886819268        0.9710379902       -0.0017563464
 C         -2.5419950715       -0.1754909207       -0.0001550731
 O         -3.7518368167       -0.1737027770       -0.0010438031
 N         -1.8082184584       -1.3475742228        0.0020687420
 C          1.7528692918       -0.2186885341       -0.0004888799
 F          2.2740084344       -1.4586861072       -0.0114860590
 F          2.2749172192        0.4084033606       -1.0704915862
 F          2.2747369225        0.3893560469        1.0809992551
 H          0.0128112873       -2.3437238282        0.0009960047
 H         -2.3035735906        1.8483151947       -0.0027168698
 H         -2.3429181762       -2.2119298343        0.0030284090
  15
  -40.4777962200000       0.337473592820723      !
 C         -0.4659890967       -1.2413441416       -0.5870666609
 C          0.2595711690       -0.2046275724       -0.0971635125
 C         -0.4090525130        0.9669233771        0.4593412223
 O          0.1457024808        1.9461769475        0.9189549498
 N         -1.7879421627        0.8754199507        0.4235513763
 C         -2.5421275016       -0.1606800018       -0.0661424933
 O         -3.7519175431       -0.1602752978       -0.0607887161
 N         -1.8092768596       -1.2183171448       -0.5726188063
 C          1.7527102889       -0.1965625457       -0.0990611712
 F          2.2790227629       -0.0859144631        1.1343786567
 F          2.2728949926       -1.3220503597       -0.6205356146
 F          2.2712308120        0.8154252588       -0.8192730012
 H          0.0109594502       -2.1176725972       -1.0041543601
 H         -2.3021859131        1.6675352878        0.8015382214
 H         -2.3446794617       -1.9991435028       -0.9425155825
  15
  -40.4777607100000       0.325027815536103      !
 C         -0.4661841094       -1.2412421721        0.5880848475
 C          0.2594128471       -0.2044815531        0.0982313641
 C         -0.4090627581        0.9660362309       -0.4606788377
 O          0.1460693510        1.9436636315       -0.9232429465
 N         -1.7878667136        0.8755995489       -0.4228914924
 C         -2.5420242660       -0.1604739902        0.0666294024
 O         -3.7517965734       -0.1595755974        0.0614674447
 N         -1.8094572710       -1.2186396773        0.5721903195
 C          1.7526111215       -0.1960680503        0.0999424872
 F          2.2786829026       -0.1004745993       -1.1351022324
 F          2.2714315142        0.8246186826        0.8071613199
 F          2.2730038151       -1.3150818250        0.6348389796
 H          0.0106740405       -2.1171089930        1.0062893585
 H         -2.3026390012        1.6671591068       -0.8010632697
 H         -2.3453702604       -1.9994798546        0.9410870797
