  14
  -46.5587424500000       0.504772313806293      !
 C         -1.2723614823        0.0001455741        0.0000316513
 C         -0.5763746280       -1.2163400800       -0.0029497631
 C          0.8202837342       -1.2106844314       -0.0143129927
 C          1.5175942228       -0.0001563207       -0.0000426313
 C          0.8205589462        1.2105227839        0.0143242175
 C         -0.5760958698        1.2164868493        0.0030405853
 Cl        -1.3989054706        2.7181598001        0.0492649445
 Cl         1.6813838516        2.6856944782        0.0423958808
 Cl         3.2201702405       -0.0003611199       -0.0000126145
 Cl         1.6807999053       -2.6860454755       -0.0423921295
 Cl        -1.3995517309       -2.7178075858       -0.0492625939
 N         -2.7171846456        0.0002595703        0.0000019952
 O         -3.2784096369       -0.8213701402        0.6873124785
 O         -3.2782462842        0.8219596414       -0.6873681580
  14
  -46.5587244100000       0.495227686193707      !
 C         -1.2723089604       -0.0000086320        0.0005708555
 C         -0.5762465993       -1.2110386179       -0.1136531499
 C          0.8202821810       -1.2065292697       -0.1012899093
 C          1.5175515516       -0.0002293726        0.0000653819
 C          0.8204794353        1.2062738550        0.1016432644
 C         -0.5761160206        1.2109941668        0.1146606291
 Cl        -1.3988779669        2.7101471348        0.2130181488
 Cl         1.6810066684        2.6776965944        0.2124532298
 Cl         3.2201275407       -0.0004530979       -0.0001008810
 Cl         1.6807875708       -2.6778722095       -0.2129808905
 Cl        -1.3992274725       -2.7099793414       -0.2128536861
 N         -2.7171338920       -0.0001176943        0.0004955024
 O         -3.2784155460        0.7516537101        0.7635291270
 O         -3.2781340511       -0.7501255480       -0.7644337663
