  22
        -26.21019999
 C         -2.0105864423        0.6198777092       -0.0437827870
 C         -1.7068939216       -0.7817312520        0.4859508750
 C         -0.7409801016       -1.5574826154       -0.4125864542
 C          0.7429888406       -1.3570639464       -0.0940855551
 C          1.1535019804        0.0707405189        0.2931139522
 C          0.4524766389        1.1636583482       -0.5261859000
 C         -0.8641554089        1.6175809529        0.1018069582
 O          2.5665585962        0.2032910018        0.2251532317
 H         -2.8754231608        1.0194717193        0.4910910243
 H         -2.2874502797        0.5417453610       -1.0979309847
 H         -1.3121966218       -0.7228059864        1.5008891132
 H         -2.6501901869       -1.3305913449        0.5329686566
 H         -0.9497644144       -2.6258020416       -0.3274945725
 H         -0.9360538154       -1.2778217756       -1.4494556322
 H          1.0371002987       -2.0173746369        0.7246288821
 H          1.3252718921       -1.6545202628       -0.9707474469
 H          0.9374872582        0.2406040777        1.3538469878
 H          1.1291216551        2.0216659382       -0.5580796297
 H          0.2867930514        0.8257359108       -1.5500345403
 H         -0.6940024419        1.8213986175        1.1617165395
 H         -1.1690693938        2.5563241571       -0.3662325147
 H          2.8528019342        0.0492767799       -0.6862993876
