  9
  -34.7671509300000       0.335987333471675      !
 C          0.2621757016       -0.5431559339       -0.0002763562
 C          1.3996988529        0.1504817402        0.0001942174
 F          2.6011208038       -0.3700120452        0.0005251443
 F          1.4388850142        1.4622293758       -0.0004888367
 C         -1.1069199463        0.1054320705       -0.0000668140
 F         -1.2942713630        0.8779461674        1.0779844707
 F         -1.2852998695        0.8967458064       -1.0657611715
 F         -2.0725296462       -0.8053667426       -0.0118796832
 F          0.2612543517       -1.8799489166       -0.0002857561
  9
  -34.7671473000000       0.334699198648078      !
 C          0.2852619172       -0.4210061049       -0.3238530657
 C          1.3799613631        0.0472024511        0.2739626203
 F          2.5951074368       -0.4005306419        0.0811506124
 F          1.3571261443        1.0313358131        1.1417640290
 C         -1.1021681901        0.1313497756       -0.0688642476
 F         -1.1888586597        1.4302385191       -0.3845190396
 F         -2.0172555644       -0.5150722678       -0.7807721614
 F         -1.4499882891        0.0331502336        1.2207870654
 F          0.3479071216       -1.4258430108       -1.2033341299
  9
  -34.7671319700000       0.329313467880247      !
 C          0.2850004775       -0.4220710142        0.3225335341
 C          1.3798331459        0.0478385107       -0.2736726554
 F          2.5947795506       -0.4010627976       -0.0819009960
 F          1.3580360967        1.0359329714       -1.1369999049
 C         -1.1022486320        0.1316054350        0.0692749249
 F         -2.0167659633       -0.5126437854        0.7838866414
 F         -1.1869378394        1.4310933384        0.3825358063
 F         -1.4524739955        0.0310907448       -1.2196149176
 F          0.3476975355       -1.4310223360        1.1974082552
