  13
  -16.7093223900000       0.500119046917869      !
 C         -1.0377788640       -0.7350826226       -0.2199245278
 C         -1.0423549118        0.7262889323        0.2251905956
 C          0.3771833732        1.1585453134       -0.1395635324
 O          1.2067667866        0.0073341263        0.0077335938
 C          0.3900630639       -1.1571963132        0.1270131378
 H         -1.1987950759       -0.8020250957       -1.2958753403
 H         -1.7782868873       -1.3423490181        0.2927382219
 H         -1.7945975863        1.3263781639       -0.2787600935
 H         -1.1897619314        0.7924810664        1.3031150863
 H          0.4310377315        1.4956775632       -1.1831877858
 H          0.7733944915        1.9450769508        0.5065440494
 H          0.7900387504       -1.9231775737       -0.5415331680
 H          0.4560425376       -1.5197675048        1.1610017851
  13
  -16.7093219400000       0.499880953082131      !
 C         -1.0373761776       -0.7372827124        0.2139236242
 C         -1.0426666237        0.7281685442       -0.2175576482
 C          0.3774863315        1.1576579440        0.1483353505
 O          1.2067366196        0.0069704409       -0.0056638424
 C          0.3898010515       -1.1557021607       -0.1393631872
 H         -1.7787827170       -1.3396940595       -0.3031840251
 H         -1.1964644841       -0.8144237545        1.2894801857
 H         -1.1926801178        0.8042009500       -1.2944087656
 H         -1.7938864023        1.3234797071        0.2935394899
 H          0.7729461551        1.9475649136       -0.4939369850
 H          0.4324271956        1.4889585109        1.1937034552
 H          0.4541770960       -1.5053237966       -1.1779740244
 H          0.7902421767       -1.9301066549        0.5190750002
