  15
  -18.1900229700000       6.510922014508944E-002 !
 C         -2.9432689728        0.5002797799        0.0000394490
 C         -1.7756550323       -0.4791098966       -0.0026375267
 C         -0.4351665472        0.2521999266        0.0024672103
 C          0.7370800364       -0.7394434014        0.0015869234
 C          1.9957282684       -0.0518737177        0.0004186528
 N          2.9924832450        0.5137283346       -0.0018140489
 H         -3.8888939859       -0.0354991518       -0.0043840894
 H         -2.9099674120        1.1319438558        0.8848282352
 H         -2.9066647256        1.1407150316       -0.8782829811
 H         -1.8415198749       -1.1229517247        0.8769780257
 H         -1.8388832903       -1.1150180806       -0.8882142647
 H         -0.3688532872        0.8902487594        0.8864108033
 H         -0.3653506242        0.8957639726       -0.8772029246
 H          0.6944777843       -1.3764226732        0.8887236316
 H          0.6933166749       -1.3758129956       -0.8859870095
  15
  -18.1900211600000       6.498463367939057E-002 !
 C         -2.9435383890        0.4999492910       -0.0001151230
 C         -1.7756485837       -0.4791099629       -0.0016250805
 C         -0.4352977929        0.2524921335        0.0018004976
 C          0.7370382522       -0.7390350798        0.0009124422
 C          1.9957906708       -0.0517074623        0.0005019910
 N          2.9929002938        0.5132601625       -0.0013500707
 H         -2.9070642585        1.1394229172       -0.8790720792
 H         -3.8889989052       -0.0360361483       -0.0040467169
 H         -2.9105237980        1.1325673200        0.8839323864
 H         -1.8410163494       -1.1215295438        0.8790736878
 H         -1.8390633439       -1.1164954692       -0.8861264700
 H         -0.3684326830        0.8913599732        0.8851108612
 H         -0.3662756836        0.8952792147       -0.8784998529
 H          0.6941103849       -1.3764401992        0.8877537723
 H          0.6935822384       -1.3750449437       -0.8869375427
  15
  -18.1900122200000       6.437276082844481E-002 !
 C         -2.9441765026        0.4993846506       -0.0002784240
 C         -1.7758383114       -0.4789703010       -0.0010317499
 C         -0.4354543625        0.2528700056        0.0013357899
 C          0.7370125547       -0.7383220951        0.0009142928
 C          1.9962548415       -0.0517466817       -0.0005847880
 N          2.9936095415        0.5127267385       -0.0005111449
 H         -2.9109157478        1.1329273692        0.8831171538
 H         -2.9081295072        1.1377881486       -0.8800696097
 H         -3.8894394956       -0.0370399916       -0.0032354467
 H         -1.8409695567       -1.1203938614        0.8803510389
 H         -1.8398120093       -1.1173916842       -0.8847412458
 H         -0.3684498154        0.8930257791        0.8837372030
 H         -0.3660977971        0.8943283476       -0.8798215695
 H          0.6937850839       -1.3738515706        0.8889939962
 H          0.6929959455       -1.3763641055       -0.8854601290
  15
  -18.1899905900000       6.291608288136129E-002 !
 C         -2.6450183483        0.6687985020        0.0892245811
 C         -1.2759488727        0.1390891627        0.4987714381
 C         -0.5674342114       -0.5431148578       -0.6694363271
 C          0.8156627740       -1.0784562692       -0.2712513557
 C          1.7188326796       -0.0134609938        0.0609309589
 N          2.4425142076        0.8386853646        0.3130303545
 H         -3.2778512958       -0.1423920683       -0.2633846967
 H         -3.1358206414        1.1464510389        0.9330899224
 H         -2.5472192790        1.4005586803       -0.7094010833
 H         -0.6588303357        0.9643375071        0.8631215952
 H         -1.3942302838       -0.5733412238        1.3186763641
 H         -0.4583391865        0.1663154296       -1.4925619109
 H         -1.1722285284       -1.3799610180       -1.0224997486
 H          0.7300141146       -1.7372127580        0.5966366109
 H          1.2554236315       -1.6430789255       -1.0970046787
  15
  -18.1899832600000       6.242995776302857E-002 !
 C         -2.6457696545        0.6676623338        0.0894463436
 C         -1.2758295121        0.1398908974        0.4985534564
 C         -0.5671224773       -0.5422191626       -0.6696682119
 C          0.8154458539       -1.0783425924       -0.2710868542
 C          1.7191059864       -0.0137328244        0.0610364633
 N          2.4429051676        0.8383261134        0.3129738887
 H         -2.5494249595        1.3986876446       -0.7100616553
 H         -3.2779388465       -0.1446613102       -0.2618288480
 H         -3.1363950351        1.1456018070        0.9332458716
 H         -0.6595273625        0.9659874723        0.8623398034
 H         -1.3929136279       -0.5723196351        1.3188605774
 H         -0.4573450516        0.1674987994       -1.4924819967
 H         -1.1722585119       -1.3785973875       -1.0233427457
 H          0.7292796764       -1.7369792350        0.5968660980
 H          1.2551527627       -1.6433526898       -1.0966393677
  15
  -18.1899828800000       6.240485884696222E-002 !
 C         -2.6456770262        0.6670585235       -0.0938657750
 C         -1.2757835884        0.1363857827       -0.4993331632
 C         -0.5670408959       -0.5375106573        0.6736030610
 C          0.8154797604       -1.0764555581        0.2787522728
 C          1.7189788077       -0.0141828787       -0.0611531029
 N          2.4427318455        0.8361469924       -0.3194009015
 H         -3.1365728041        1.1387119270       -0.9410625418
 H         -3.2776115988       -0.1427843474        0.2635186245
 H         -2.5492062221        1.4039424288        0.7002481679
 H         -1.3929876147       -0.5815888318       -1.3145623143
 H         -0.6594206364        0.9598338324       -0.8689678721
 H         -1.1721325899       -1.3714273459        1.0331250495
 H         -0.4571774731        0.1779491304        1.4914200825
 H          1.2553794005       -1.6355103428        1.1082260031
 H          0.7292554334       -1.7412470279       -0.5844775707
  15
  -18.1899826700000       6.239099272277608E-002 !
 C         -2.6451682558        0.6674863538       -0.0937772675
 C         -1.2758614437        0.1355634615       -0.4996535759
 C         -0.5672335765       -0.5376421525        0.6737527042
 C          0.8154197037       -1.0761708889        0.2789298502
 C          1.7180843259       -0.0132973817       -0.0610617668
 N          2.4432440192        0.8356027402       -0.3195874105
 H         -3.2775328390       -0.1414779556        0.2647334447
 H         -2.5478199625        1.4051305274        0.6995204042
 H         -3.1363106893        1.1385313862       -0.9411332170
 H         -1.3942998135       -0.5834070881       -1.3138275633
 H         -0.6589293390        0.9581326565       -0.8706366344
 H         -1.1719374489       -1.3716619702        1.0337662884
 H         -0.4574517579        0.1784008732        1.4911240174
 H          1.2555497066       -1.6348084358        1.1085912392
 H          0.7296762521       -1.7410735726       -0.5843027157
  15
  -18.1899825800000       6.238505104129471E-002 !
 C         -2.6455919094        0.6670986861       -0.0938835461
 C         -1.2756068776        0.1365698132       -0.4992592681
 C         -0.5670444632       -0.5377116727        0.6735511805
 C          0.8155320700       -1.0765475132        0.2787415173
 C          1.7189176310       -0.0142124779       -0.0612478426
 N          2.4424667045        0.8362368298       -0.3193167672
 H         -2.5493087574        1.4035625006        0.7006278395
 H         -3.1362839547        1.1392248359       -0.9409282333
 H         -3.2776596705       -0.1428769935        0.2629295045
 H         -1.3926335011       -0.5811196463       -1.3147693462
 H         -0.6591734274        0.9601590464       -0.8684630691
 H         -1.1722268657       -1.3717382856        1.0326816481
 H         -0.4573190845        0.1775001060        1.4916113038
 H          1.2554877283       -1.6355069110        1.1082644673
 H          0.7293561255       -1.7414013766       -0.5844491210
  15
  -18.1899825100000       6.238043012478376E-002 !
 C         -2.6459732376        0.6670146745        0.0894912285
 C         -1.2749996927        0.1415392019        0.4980879213
 C         -0.5672569327       -0.5428950751       -0.6693221792
 C          0.8154271356       -1.0786603097       -0.2707720062
 C          1.7189997374       -0.0138462995        0.0609668459
 N          2.4425201960        0.8384866776        0.3127589521
 H         -3.1357961455        1.1468898272        0.9326603700
 H         -2.5513139461        1.3959003456       -0.7121542017
 H         -3.2779578514       -0.1467905234       -0.2586891276
 H         -0.6589477203        0.9690244987        0.8590796133
 H         -1.3903523221       -0.5687471475        1.3202760628
 H         -0.4578131120        0.1652918596       -1.4934825137
 H         -1.1727868805       -1.3798220932       -1.0210669840
 H          0.7294288727       -1.7369354500        0.5974412732
 H          1.2551468579       -1.6439085243       -1.0961529657
  15
  -18.1893488800000       3.190451733403101E-002 !
 C         -2.5482011206        0.3187760114       -0.6183339908
 C         -1.8429375065       -0.4113295938        0.5196260058
 C         -0.4008050003        0.0500139121        0.7301815368
 C          0.5016854293       -0.3053501238       -0.4609131876
 C          1.8673111849        0.0364999409       -0.1880514597
 N          2.9544469720        0.3139511046        0.0461993646
 H         -2.4944018123        1.3952827879       -0.4713799728
 H         -2.1036063845        0.0771129392       -1.5801948501
 H         -3.5960080907        0.0312918019       -0.6529814849
 H         -2.3921975473       -0.2351002421        1.4465597186
 H         -1.8564257433       -1.4862646585        0.3276433941
 H         -0.0012564153       -0.4242682335        1.6293893785
 H         -0.3808819667        1.1304880373        0.8875067674
 H          0.4514374678       -1.3781392031       -0.6645963491
 H          0.1894048687        0.2373772265       -1.3555235343
  15
  -18.1893488700000       3.190417972383274E-002 !
 C         -2.5480891455        0.3178027123        0.6187235939
 C         -1.8429095260       -0.4109240226       -0.5201430717
 C         -0.4007859827        0.0506966194       -0.7302187518
 C          0.5014900781       -0.3046982015        0.4610145218
 C          1.8672884456        0.0363450073        0.1880755245
 N          2.9545014379        0.3133507243       -0.0461806225
 H         -2.4937873759        1.3945086020        0.4733515155
 H         -3.5960307634        0.0306788945        0.6526324075
 H         -2.1038022254        0.0744565170        1.5803146942
 H         -1.8564220572       -1.4860843167       -0.3294146143
 H         -2.3922371461       -0.2335850053       -1.4468284899
 H         -0.3809096642        1.1312062257       -0.8872156605
 H         -0.0009791303       -0.4232856912       -1.6294724833
 H          0.1894572588        0.2383338938        1.3555004559
 H          0.4507230515       -1.3773978450        0.6649167141
  15
  -18.1893488100000       3.190215413778537E-002 !
 C         -2.5485758111        0.3182419255       -0.6182655811
 C         -1.8428815296       -0.4111802629        0.5198475627
 C         -0.4008206053        0.0507175732        0.7298264292
 C          0.5017490541       -0.3051490173       -0.4610373859
 C          1.8674740041        0.0362514293       -0.1880017124
 N          2.9546076985        0.3136687358        0.0463439397
 H         -3.5961650859        0.0299723828       -0.6529215728
 H         -2.4955873778        1.3948057884       -0.4714764102
 H         -2.1037456926        0.0767778318       -1.5800610296
 H         -2.3920864842       -0.2347787062        1.4467961256
 H         -1.8560647211       -1.4861919203        0.3282566512
 H         -0.0010034319       -0.4228739628        1.6292782524
 H         -0.3811079806        1.1313051023        0.8863857002
 H          0.4511761582       -1.3780011854       -0.6643760925
 H          0.1897009247        0.2374537860       -1.3558042305
  15
  -18.1893488100000       3.190215413778537E-002 !
 C         -2.5484597508        0.3171848112        0.6186846993
 C         -1.8427799820       -0.4108322849       -0.5203287871
 C         -0.4008177346        0.0514819244       -0.7299600469
 C          0.5015063815       -0.3043216922        0.4611336268
 C          1.8673924152        0.0362061920        0.1880026375
 N          2.9547002082        0.3128544044       -0.0462728026
 H         -3.5961566799        0.0292133686        0.6526685362
 H         -2.1039078182        0.0741713049        1.5802268455
 H         -2.4950767046        1.3939355204        0.4734053099
 H         -1.8558523018       -1.4860626735       -0.3299720572
 H         -2.3920235289       -0.2334309029       -1.4470545230
 H         -0.3813602755        1.1320873791       -0.8863951478
 H         -0.0007714893       -0.4218663920       -1.6294383891
 H          0.1897949171        0.2387983821        1.3556853994
 H          0.4504213299       -1.3770380250        0.6649825116
  15
  -18.1893487900000       3.190147897109522E-002 !
 C         -2.5481609769        0.3185898544        0.6184677493
 C         -1.8429369307       -0.4110913658       -0.5197653333
 C         -0.4007992733        0.0503922947       -0.7300748318
 C          0.5017522459       -0.3058064128        0.4607269215
 C          1.8673240370        0.0363190855        0.1880174288
 N          2.9543207755        0.3141663717       -0.0460765730
 H         -2.1035350285        0.0765904947        1.5802273416
 H         -2.4944540221        1.3951541517        0.4719109727
 H         -3.5959440167        0.0310023082        0.6530092643
 H         -1.8565421618       -1.4861153118       -0.3282427642
 H         -2.3921888807       -0.2344019247       -1.4466134130
 H         -0.3807437773        1.1309629705       -0.8867489044
 H         -0.0013582845       -0.4233908286       -1.6295829614
 H          0.1894499466        0.2362079828        1.3557498852
 H          0.4516314686       -1.3787578643        0.6635810947
  15
  -18.1893486900000       3.189810335161379E-002 !
 C         -2.5484206461        0.3163829567       -0.6189181415
 C         -1.8426948295       -0.4105001268        0.5208041465
 C         -0.4007848753        0.0522560027        0.7297763920
 C          0.5015887677       -0.3055108856       -0.4606214724
 C          1.8661815317        0.0430457723       -0.1911032492
 N          2.9554201434        0.3082703442        0.0482095611
 H         -2.1041800947        0.0722121274       -1.5803415796
 H         -3.5962049642        0.0285733679       -0.6522598618
 H         -2.4946121331        1.3932897183       -0.4747262197
 H         -2.3917981562       -0.2323924051        1.4474747934
 H         -1.8556098709       -1.4858777420        0.3314549942
 H         -0.0006370635       -0.4194370566        1.6300895641
 H         -0.3814719559        1.1331939280        0.8840798464
 H          0.4544801007       -1.3793588100       -0.6593626474
 H          0.1866721973        0.2323488678       -1.3572811719
  15
  -18.1891859500000       2.685188231817088E-002 !
 C         -2.1683138467        0.6495366863        0.5713585472
 C         -1.3428005146        0.2970436804       -0.6618789775
 C         -0.5420573556       -0.9958592763       -0.5013941242
 C          0.5820057780       -0.8862858200        0.5399294375
 C          1.5613073425        0.0919643731        0.1618618008
 N          2.3474571414        0.8670367306       -0.1459666559
 H         -2.8110863404       -0.1825320336        0.8502169558
 H         -1.5314422850        0.8976219721        1.4168956464
 H         -2.7959782425        1.5127278666        0.3651011901
 H         -2.0155862819        0.1780882619       -1.5137398576
 H         -0.6604624324        1.1188625404       -0.8928210902
 H         -0.1043687484       -1.2649431217       -1.4650989506
 H         -1.2122161374       -1.8014328592       -0.1968026759
 H          0.1761157816       -0.6070650444        1.5143883133
 H          1.0920161012       -1.8475412189        0.6409620589
  15
  -18.1891853800000       2.683569092351394E-002 !
 C         -2.1619090603        0.6547673267        0.5710817733
 C         -1.3428526528        0.2931617261       -0.6638382763
 C         -0.5430083812       -0.9996886304       -0.4989490657
 C          0.5819598949       -0.8870737591        0.5411086765
 C          1.5590030373        0.0928245450        0.1614664022
 N          2.3435070822        0.8693090225       -0.1470749488
 H         -2.7912903508        1.5158775395        0.3613844440
 H         -2.8025841731       -0.1754768116        0.8600952637
 H         -1.5205294278        0.9100961739        1.4110560544
 H         -2.0197881714        0.1694066551       -1.5117243434
 H         -0.6605707294        1.1125891800       -0.9033439940
 H         -0.1065044761       -1.2727013981       -1.4620759794
 H         -1.2135856007       -1.8035537329       -0.1907997904
 H          0.1765144950       -0.6080233911        1.5158098878
 H          1.0938600404       -1.8473052412        0.6422706513
  15
  -18.1891852500000       2.683199951676039E-002 !
 C         -2.1632087000        0.6468398293       -0.5789218194
 C         -1.3429440048        0.3018297431        0.6599018433
 C         -0.5428807912       -0.9928816613        0.5112571229
 C          0.5819917032       -0.8932957715       -0.5302360441
 C          1.5594887582        0.0907423090       -0.1626039180
 N          2.3444370071        0.8705327120        0.1365127443
 H         -2.7920163289        1.5109507659       -0.3802819767
 H         -1.5227034689        0.8904189972       -1.4230132949
 H         -2.8045044030       -0.1869980796       -0.8558271384
 H         -0.6606746527        1.1245368680        0.8879047812
 H         -2.0190930414        0.1891402971        1.5099727452
 H         -1.2132956972       -1.8007426245        0.2133514745
 H         -0.1062035985       -1.2536181889        1.4777009811
 H          1.0935021686       -1.8548951108       -0.6198741710
 H          0.1764759618       -0.6258711418       -1.5081685371
  15
  -18.1891851800000       2.683001204646403E-002 !
 C         -2.1613216297        0.6554304178        0.5709242554
 C         -1.3427148076        0.2928437909       -0.6640232795
 C         -0.5432154149       -1.0001642393       -0.4984557578
 C          0.5821063473       -0.8873804094        0.5411749391
 C          1.5587915834        0.0928650463        0.1614133338
 N          2.3429434069        0.8696804834       -0.1472490608
 H         -1.5196007176        0.9098775580        1.4109371748
 H         -2.7893853200        1.5175009360        0.3611919868
 H         -2.8032513089       -0.1739479578        0.8597794299
 H         -2.0199246705        0.1688295217       -1.5117144546
 H         -0.6601239190        1.1118960370       -0.9040762091
 H         -0.1070356589       -1.2739832879       -1.4615171737
 H         -1.2138865785       -1.8036557967       -0.1894892381
 H          0.1768831662       -0.6085183401        1.5160584324
 H          1.0942787799       -1.8475256956        0.6419677522
  15
  -18.1891851200000       2.682830861778150E-002 !
 C         -2.1613028166        0.6485131004       -0.5789200930
 C         -1.3428108359        0.3006677002        0.6603265364
 C         -0.5430277884       -0.9940915052        0.5108246635
 C          0.5819571152       -0.8936169126       -0.5304417835
 C          1.5588505992        0.0909559163       -0.1626888157
 N          2.3429638910        0.8712999805        0.1368114888
 H         -1.5194622237        0.8941373157       -1.4214141680
 H         -2.8019566741       -0.1848206338       -0.8587306023
 H         -2.7907284728        1.5120194873       -0.3793943340
 H         -0.6605719580        1.1226703659        0.8909135144
 H         -2.0201742958        0.1865846812        1.5092132826
 H         -1.2135285780       -1.8014824698        0.2118676625
 H         -0.1067045349       -1.2559524386        1.4771378247
 H          1.0940054469       -1.8549300512       -0.6199826758
 H          0.1765497634       -0.6263605413       -1.5084618651
  15
  -18.1891850400000       2.682603754770323E-002 !
 C         -2.1618654808        0.6480481506       -0.5788454946
 C         -1.3429859797        0.3009085833        0.6603139273
 C         -0.5430785534       -0.9937516925        0.5107059929
 C          0.5820001062       -0.8934174315       -0.5304616139
 C          1.5590543590        0.0909426699       -0.1625497107
 N          2.3435802804        0.8710166978        0.1367727769
 H         -2.8026395316       -0.1854150296       -0.8580195352
 H         -2.7911209844        1.5116991677       -0.3794418247
 H         -1.5203630125        0.8932571270       -1.4217076907
 H         -0.6607745138        1.1230844152        0.8903316095
 H         -2.0200424828        0.1870347895        1.5094752766
 H         -1.2135230558       -1.8012275432        0.2118710189
 H         -0.1067224061       -1.2554630935        1.4770198897
 H          1.0939079479       -1.8547850389       -0.6201648988
 H          0.1765973620       -0.6259809181       -1.5084231205
  15
  -18.1885098000000       1.312918324845267E-002 !
 C         -1.5306446465        1.1389130391       -0.3655152420
 C         -1.7515387739       -0.3301348270       -0.0268424241
 C         -0.5943848128       -0.9513777995        0.7546357224
 C          0.6985866066       -1.0787822882       -0.0685734489
 C          1.4515409337        0.1412863972       -0.1305954620
 N          2.0895718573        1.0933205506       -0.1613098254
 H         -0.6581720887        1.2699661049       -1.0014881454
 H         -2.3955174484        1.5401581176       -0.8881225085
 H         -1.3772995672        1.7210325775        0.5407254351
 H         -2.6577873294       -0.4205994221        0.5757823087
 H         -1.9107409740       -0.8954116607       -0.9481072601
 H         -0.8876245665       -1.9539384310        1.0702691157
 H         -0.3984473168       -0.3600527589        1.6516046775
 H          1.3534225183       -1.8273213218        0.3856953301
 H          0.4671953632       -1.3964646964       -1.0883672493
  15
  -18.1885057300000       1.307275937801351E-002 !
 C         -1.5287498440        1.1413375524        0.3581890160
 C         -1.7513672990       -0.3295103249        0.0287128043
 C         -0.5948017769       -0.9567870922       -0.7487887061
 C          0.6986169634       -1.0786947999        0.0744606666
 C          1.4508328660        0.1421839081        0.1296332547
 N          2.0883019958        1.0947103625        0.1559323932
 H         -2.3951181314        1.5480223847        0.8740171205
 H         -0.6590786085        1.2746366974        0.9974600591
 H         -1.3695792208        1.7169551944       -0.5512525515
 H         -1.9112997461       -0.8886384564        0.9536083934
 H         -2.6576304780       -0.4227716852       -0.5734871500
 H         -0.3991213469       -0.3721199441       -1.6501401489
 H         -0.8886679253       -1.9614534865       -1.0569633425
 H          0.4679198762       -1.3908587857        1.0961325637
 H          1.3536728935       -1.8293287604       -0.3759881474
  15
  -18.1885029800000       1.303477247845853E-002 !
 C         -1.5256149919        1.1414118937        0.3587441824
 C         -1.7512832247       -0.3285614397        0.0272869530
 C         -0.5948110779       -0.9581355123       -0.7484980042
 C          0.6982511033       -1.0791619394        0.0753781697
 C          1.4498041600        0.1421678920        0.1299245683
 N          2.0861031014        1.0955166034        0.1552537427
 H         -0.6590082905        1.2716352380        1.0028314939
 H         -1.3594652350        1.7170812506       -0.5494050865
 H         -2.3934754046        1.5505984799        0.8700466591
 H         -1.9143693412       -0.8881778129        0.9513506460
 H         -2.6566483706       -0.4190228965       -0.5767289690
 H         -0.3984882809       -0.3753771347       -1.6509083422
 H         -0.8891579711       -1.9631986192       -1.0548970965
 H          0.4668608039       -1.3906858875        1.0970657885
 H          1.3537775702       -1.8299808903       -0.3740307816
  15
  -18.1885028600000       1.303311738407596E-002 !
 C         -1.5256744448        1.1414463027        0.3587527075
 C         -1.7511769446       -0.3285810040        0.0273273373
 C         -0.5947433242       -0.9581160408       -0.7485493116
 C          0.6983137102       -1.0791874400        0.0753397776
 C          1.4497430319        0.1421660360        0.1299704287
 N          2.0859900158        1.0954936092        0.1552578473
 H         -1.3594835302        1.7172136880       -0.5494179489
 H         -2.3936443788        1.5506258401        0.8698815511
 H         -0.6593958093        1.2717189584        1.0030675679
 H         -1.9141130061       -0.8882138214        0.9514107067
 H         -2.6566028755       -0.4191560176       -0.5765882091
 H         -0.3984652857       -0.3752581639       -1.6509164350
 H         -0.8890290821       -1.9631867011       -1.0549921836
 H          0.4670266818       -1.3908144670        1.0969738758
 H          1.3539212638       -1.8298209843       -0.3742120724
  15
  -18.1884984000000       1.297175187073504E-002 !
 C         -1.5294100615        1.1391475905       -0.3653178684
 C         -1.7514817214       -0.3297133844       -0.0267045638
 C         -0.5946694064       -0.9523407834        0.7541578375
 C          0.6985534506       -1.0789386113       -0.0686968839
 C          1.4511530295        0.1413833260       -0.1302634575
 N          2.0888205687        1.0936945628       -0.1612916125
 H         -1.3730295565        1.7206776816        0.5408059829
 H         -0.6582949058        1.2692708395       -1.0033343528
 H         -2.3949241812        1.5417929321       -0.8857315821
 H         -2.6576421349       -0.4194574738        0.5761710852
 H         -1.9114867246       -0.8945865187       -0.9480614583
 H         -0.8883219126       -1.9551502267        1.0685423655
 H         -0.3987313283       -0.3622477748        1.6518673953
 H          1.3534694026       -1.8274981260        0.3853594240
 H          0.4674474573       -1.3962643562       -1.0886657416
  15
  -18.1884981200000       1.296790898059536E-002 !
 C         -1.5290273565        1.1385083049       -0.3660041685
 C         -1.7521852675       -0.3296225270       -0.0251078163
 C         -0.5944551363       -0.9525688041        0.7542833732
 C          0.6977457597       -1.0781491229       -0.0704031416
 C          1.4506578742        0.1420852776       -0.1288512714
 N          2.0901356056        1.0930549181       -0.1615061581
 H         -2.3947566834        1.5413665752       -0.8860007658
 H         -1.3704018072        1.7213180383        0.5388362426
 H         -0.6588679215        1.2663223780       -1.0055699735
 H         -2.6573882761       -0.4175334839        0.5793174506
 H         -1.9146435463       -0.8952492527       -0.9454578379
 H         -0.8875637163       -1.9555996742        1.0684325989
 H         -0.3973685500       -0.3630187537        1.6521142138
 H          1.3526721849       -1.8284981933        0.3803421843
 H          0.4653249852       -1.3922018396       -1.0909202960
