  8
    -0.658501 !GC
 C          0.0000000000        0.0000000000        0.0000000000
 S          1.7647558422        0.0000000000        0.0000000000
 O          2.3169791495        1.3287694595        0.0000000000
 O          2.3159266109       -0.9295459889       -0.9507699560
 Cl         2.1870505181       -0.7751170360        1.8514693291
 H         -0.3263866284       -0.6259614497       -0.8184754142
 H         -0.2842552166       -0.4121503464        0.9619690667
 H         -0.3265459525        1.0242158334       -0.1118017818
  8
    -0.364206 !GC
 C          0.0000000000        0.0000000000        0.0000000000
 S          1.7648369667        0.0000000000        0.0000000000
 O          2.3160416628        1.3292350770        0.0000000000
 O          2.3167846679       -0.9288687825       -0.9511006048
 Cl         2.1883485552       -0.7756270803        1.8509381373
 H         -0.3057971000        1.0327996429       -0.0886315525
 H         -0.3060053539       -0.5873122606       -0.8585784440
 H         -0.3263514956       -0.4641082607        0.9199145287
  8
    -0.314661 !GC
 C          0.0000000000        0.0000000000        0.0000000000
 S          1.7647835986        0.0000000000        0.0000000000
 O          2.3168007153        1.3289778141        0.0000000000
 O          2.3161841815       -0.9289972569       -0.9510075949
 Cl         2.1871207355       -0.7769560111        1.8509739274
 H         -0.3163880576       -0.3959350836        0.9567638007
 H         -0.2944751537        1.0340112924       -0.1255200497
 H         -0.3264289400       -0.6273757439       -0.8173956287
  8
    -0.307282 !GC
 C          0.0000000000        0.0000000000        0.0000000000
 S          1.7648610644        0.0000000000        0.0000000000
 O          2.3169144281        1.3288933553        0.0000000000
 O          2.3154516296       -0.9288687250       -0.9516446279
 Cl         2.1886931621       -0.7775560273        1.8504053423
 H         -0.3261530693        1.0229928664       -0.1231500187
 H         -0.2954514024       -0.6338900976       -0.8263894734
 H         -0.3156234969       -0.4063664381        0.9525310943
  8
    -0.264310 !GC
 C          0.0000000000        0.0000000000        0.0000000000
 S          1.7649421889        0.0000000000        0.0000000000
 O          2.3159768399        1.3293588428        0.0000000000
 O          2.3163097422       -0.9281914240       -0.9519750181
 Cl         2.1899911501       -0.7780649937        1.8498726203
 H         -0.3055640830       -0.4485235570        0.9345041115
 H         -0.3170923387        1.0309396758       -0.0912284177
 H         -0.3154280722       -0.5775510818       -0.8596521244
  8
    -0.144989 !GC
 C          0.0000000000        0.0000000000        0.0000000000
 S          1.7718077473        0.0000000000        0.0000000000
 O          2.3223898661        1.3297488425        0.0000000000
 O          2.3203457695       -0.9246476247       -0.9570816073
 Cl         2.2315262624       -0.7803887538        1.8437993943
 H         -0.3386546424        0.3559376170       -0.9632556614
 H         -0.2860719866       -1.0311618025        0.1680290101
 H         -0.3181196852        0.6564068519        0.7980610662
  8
    -0.125080 !GC
 C          0.0000000000        0.0000000000        0.0000000000
 S          1.7718609892        0.0000000000        0.0000000000
 O          2.3216305647        1.3300053945        0.0000000000
 O          2.3209463333       -0.9245192191       -0.9571747324
 Cl         2.2327455102       -0.7790533733        1.8437467878
 H         -0.3281041823       -1.0203881101        0.1272047684
 H         -0.2976211005        0.6237309431        0.8365592358
 H         -0.3180427322        0.4340915313       -0.9376767036
  8
    -0.118534 !GC
 C          0.0000000000        0.0000000000        0.0000000000
 S          1.7718114061        0.0000000000        0.0000000000
 O          2.3213380468        1.3302975812        0.0000000000
 O          2.3219373323       -0.9241019876       -0.9567738051
 Cl         2.2312519795       -0.7802998035        1.8438415186
 H         -0.3083219246       -1.0285676921        0.1421958911
 H         -0.3068089102        0.6141289585        0.8374847497
 H         -0.3287013331        0.4009570138       -0.9467758124
  8
    -0.117425 !GC
 C          0.0000000000        0.0000000000        0.0000000000
 S          1.7717836496        0.0000000000        0.0000000000
 O          2.3215169331        1.3300896099        0.0000000000
 O          2.3216795114       -0.9246521238       -0.9565389082
 Cl         2.2311771583       -0.7784671658        1.8443411030
 H         -0.3183644740        0.3911114031       -0.9565055455
 H         -0.2966430022       -1.0376031561        0.1115996783
 H         -0.3288178854        0.6009392165        0.8341491214
