  14
  -21.7546957300000       9.956522526922060E-002 !
 C          0.3608894481        0.8582235482        0.6735016550
 C         -0.3608947759        0.8582505148       -0.6734973859
 C         -1.8704192788        0.8477675857       -0.5211400908
 Cl        -2.4401604915       -0.7003499080        0.2083094457
 C          1.8704132856        0.8477570050        0.5211541850
 Cl         2.4401650020       -0.7003415487       -0.2083179352
 H          0.0460106946       -0.0104528388        1.2536907751
 H          0.0914946676        1.7563466163        1.2320893112
 H         -0.0460031448       -0.0104133886       -1.2537011664
 H         -0.0915108900        1.7563959991       -1.2320598790
 H         -2.2133447696        1.6369709790        0.1450310576
 H         -2.3685369731        0.9219299458       -1.4854073098
 H          2.2133321318        1.6369905354       -0.1449864062
 H          2.3685345349        0.9218771766        1.4854234038
  14
  -21.7546928400000       9.926120169746899E-002 !
 C          0.4632740717        0.8560242812       -0.6077020741
 C         -0.4631871490        0.8564453429        0.6075941676
 C         -1.9294289605        0.8476277446        0.2176887700
 Cl        -2.3780554343       -0.6995598628       -0.5936719743
 C          1.9295385708        0.8476155395       -0.2179176214
 Cl         2.3779906647       -0.6994201220        0.5938175387
 H          0.2850837943        1.7536333168       -1.2026121553
 H          0.2451281591       -0.0134752523       -1.2297818383
 H         -0.2850759595        1.7540803749        1.2024512708
 H         -0.2452451420       -0.0129025157        1.2297260401
 H         -2.5741410323        0.9218428981        1.0907004869
 H         -2.1614177198        1.6377073728       -0.4938599161
 H          2.5742208810        0.9217164683       -1.0909373177
 H          2.1613832927        1.6379131054        0.4932062442
  14
  -21.7546016300000       9.012853563268552E-002 !
 C          0.3463231919       -0.2846265545        0.6182738770
 C         -0.3463953365        0.2883184162       -0.6173381380
 C         -1.7303339834       -0.2956683704       -0.8274401215
 Cl        -2.8469204307        0.1836973469        0.5031110317
 C          1.7312447990        0.2975876226        0.8268709313
 Cl         2.8465624795       -0.1859781623       -0.5032423023
 H          0.4157036452       -1.3697331391        0.5295281254
 H         -0.2467935476       -0.0524931255        1.5048717777
 H          0.2476169809        0.0576025891       -1.5037093490
 H         -0.4172904838        1.3732593854       -0.5278241509
 H         -2.1840728457        0.0744241200       -1.7444110702
 H         -1.7122444911       -1.3838746448       -0.8271385989
 H          1.7149400397        1.3858187634        0.8246257123
 H          2.1847374484       -0.0716420531        1.7443069822
  14
  -21.7546015700000       9.012281340112126E-002 !
 C          0.3463978448        0.2850711702        0.6180963572
 C         -0.3464740942       -0.2882609203       -0.6172807958
 C         -1.7304705329        0.2954962942       -0.8275270507
 Cl        -2.8468940165       -0.1838891035        0.5031624082
 C          1.7313022539       -0.2971041142        0.8270630455
 Cl         2.8465733647        0.1858456694       -0.5032849795
 H         -0.2466973762        0.0533181280        1.5048084889
 H          0.4157763307        1.3701454040        0.5289199406
 H         -0.4173460711       -1.3731769667       -0.5274267350
 H          0.2473788634       -0.0578110023       -1.5038256285
 H         -1.7124570109        1.3837194415       -0.8276134641
 H         -2.1842223974       -0.0750105230       -1.7443257861
 H          2.1848396893        0.0725044667        1.7443326563
 H          1.7150041741       -1.3853400886        0.8252526258
  14
  -21.7540568300000       5.063951880480960E-002 !
 C          0.3852646266        0.1817837260       -0.2916663889
 C         -0.7024440546        1.2456539992       -0.1312916953
 C         -2.0342987127        0.7934855983       -0.7015988042
 Cl        -2.7056855925       -0.5942719884        0.2337483023
 C          1.6999522769        0.6661649234        0.2938122511
 Cl         2.9736901267       -0.5912847995        0.1073684488
 H          0.5213361175       -0.0488175051       -1.3492833396
 H          0.0764679971       -0.7335299980        0.2156167969
 H         -0.4081410116        2.1521980581       -0.6621845451
 H         -0.8231459537        1.4910281887        0.9242510632
 H         -2.7813629782        1.5818874079       -0.6405082109
 H         -1.9347189269        0.4438328723       -1.7272732936
 H          2.0686072792        1.5511792176       -0.2215246254
 H          1.6179202971        0.8596907275        1.3618378877
  14
  -21.7540567200000       5.063362463541136E-002 !
 C          0.7021144847        1.2457879622        0.1309039870
 C         -0.3852480169        0.1815089681        0.2907178954
 C         -1.7004599195        0.6670647413       -0.2924992720
 Cl        -2.9733094777       -0.5915076120       -0.1078452443
 C          2.0338853531        0.7935614836        0.7014525789
 Cl         2.7058059410       -0.5943982844       -0.2332377291
 H          0.4073842687        2.1520621837        0.6620223698
 H          0.8230453052        1.4915674483       -0.9245364383
 H         -0.5201509909       -0.0508774495        1.3480986301
 H         -0.0769789947       -0.7329058992       -0.2184577917
 H         -2.0689294900        1.5506299664        0.2253431926
 H         -1.6194259534        0.8631635831       -1.3600793290
 H          2.7809068764        1.5819608241        0.6402443831
 H          1.9342682889        0.4441988656        1.7272643309
  14
  -21.7540565200000       5.062290972109386E-002 !
 C          0.6712270523        1.1044211582        0.6269806594
 C         -0.3547251411        0.3197669796       -0.1929562997
 C         -1.7441198529        0.4698624190        0.4009541881
 Cl        -2.9444968484       -0.4621318934       -0.5627519582
 C          2.0741461797        0.9769057250        0.0620363452
 Cl         2.6785470970       -0.7168122921        0.1943756722
 H          0.6613896834        0.7539988742        1.6594731278
 H          0.4099320503        2.1636458746        0.6222380193
 H         -0.0776388603       -0.7354290022       -0.2085253667
 H         -0.3582925277        0.6821645851       -1.2219695843
 H         -1.7939100795        0.0738168826        1.4135763746
 H         -2.0792630797        1.5052794623        0.3850084743
 H          2.1052009663        1.2245984445       -0.9972139494
 H          2.7828971229        1.5890349213        0.6156141795
  14
  -21.7540561500000       5.060309310712677E-002 !
 C          0.3547881814        0.3183459123        0.1920332457
 C         -0.6708871863        1.1043277411       -0.6269758981
 C         -2.0738646346        0.9769452471       -0.0620271529
 Cl        -2.6793100075       -0.7164531153       -0.1939306955
 C          1.7449677133        0.4725758939       -0.3991828715
 Cl         2.9446367189       -0.4630393485        0.5619457978
 H          0.0791546014       -0.7373955097        0.2038912860
 H          0.3559109769        0.6777394561        1.2221523178
 H         -0.6612725606        0.7546452805       -1.6597286202
 H         -0.4090181453        2.1634971249       -0.6215374496
 H         -2.1047384197        1.2247791359        0.9972069661
 H         -2.7823716037        1.5892772320       -0.6157036275
 H          1.7965303820        0.0808354518       -1.4133680194
 H          2.0791448742        1.5082585548       -0.3786842523
  14
  -21.7539510100000       4.527495896378774E-002 !
 C          0.3977231510        0.8045124855        0.6533074083
 C         -0.3976720682        0.8044945236       -0.6533027530
 C         -1.4021324027       -0.3287590199       -0.7608249390
 Cl        -2.6828217818       -0.1857473096        0.4996110213
 C          1.4021314785       -0.3288039195        0.7608287178
 Cl         2.6827999211       -0.1856957795       -0.4996137819
 H         -0.2922351594        0.7154758010        1.4945126684
 H          0.9242517818        1.7548297773        0.7450824528
 H          0.2922937028        0.7154853395       -1.4945160386
 H         -0.9242659610        1.7547684526       -0.7450601182
 H         -1.9206823957       -0.3028334914       -1.7170111174
 H         -0.9433942546       -1.3036580338       -0.6138012909
 H          1.9207510014       -0.3028455674        1.7169699404
 H          0.9434525056       -1.3037346165        0.6138201037
  14
  -21.7539498700000       4.522037480395203E-002 !
 C          0.3971099836       -0.7981693498        0.6517678562
 C         -0.3979963394       -0.7968200418       -0.6551053590
 C         -1.4048916333        0.3346253198       -0.7580937982
 Cl        -2.6883106192        0.1801432936        0.4983032318
 C          1.4047108785        0.3323691181        0.7588979152
 Cl         2.6887331906        0.1816627135       -0.4973016944
 H          0.9212456347       -1.7495226187        0.7445065912
 H         -0.2926891203       -0.7071321725        1.4928319837
 H         -0.9224409547       -1.7478854363       -0.7510460118
 H          0.2917908310       -0.7029049493       -1.4958391807
 H         -0.9492190853        1.3097923139       -0.6035996981
 H         -1.9206805162        0.3135697832       -1.7157743314
 H          0.9491000749        1.3079357027        0.6075040192
 H          1.9207455743        0.3082085828        1.7163770328
  14
  -21.7534690300000       2.718663106998081E-002 !
 C          0.6784366921       -0.0002007732       -0.3552049911
 C         -0.6783789239       -0.0000043481        0.3551968385
 C         -1.8074210083       -0.0001661702       -0.6609879056
 Cl        -3.4025660496        0.0001213916        0.1713460733
 C          1.8074357085        0.0000883095        0.6610289912
 Cl         3.4025381245       -0.0000209776       -0.1713576988
 H          0.7622767182        0.8822843204       -0.9903532059
 H          0.7620507720       -0.8828810215       -0.9901282851
 H         -0.7621724679        0.8827802305        0.9898900510
 H         -0.7620577193       -0.8823559772        0.9905508395
 H         -1.7884137888        0.8921095521       -1.2838775698
 H         -1.7885266823       -0.8927929049       -1.2835502813
 H          1.7884848438        0.8926813284        1.2834579963
 H          1.7884770117       -0.8919854099        1.2840269352
  14
  -21.7533996900000       2.526323349854979E-002 !
 C          0.3895883786        0.6917112675        0.5721225554
 C         -0.7899124596        1.4755557429       -0.0099513998
 C         -1.7283850982        0.6437400226       -0.8674236281
 Cl        -2.4823400232       -0.6868021755        0.0889322315
 C          1.3681772018        0.2406054565       -0.4996685939
 Cl         2.7944500406       -0.5557854234        0.2573646344
 H          0.0163811900       -0.1783174977        1.1142598457
 H          0.9159334746        1.3296055869        1.2831032003
 H         -0.4163362864        2.2911552744       -0.6308944232
 H         -1.3557016668        1.9070611573        0.8160615538
 H         -2.5542213409        1.2470918933       -1.2386947977
 H         -1.2140675174        0.1650138833       -1.6968656350
 H          0.9358982064       -0.5016712164       -1.1666993163
 H          1.7566558738        1.0830212090       -1.0692587423
  14
  -21.7533992500000       2.525147353030638E-002 !
 C          0.7895080859        1.4739003063        0.0081077308
 C         -0.3897375506        0.6887529156       -0.5726444588
 C         -1.3723868307        0.2465423366        0.4991150251
 Cl        -2.7950717403       -0.5572577720       -0.2568617063
 C          1.7275116908        0.6433143222        0.8672430290
 Cl         2.4853050617       -0.6857718719       -0.0881782335
 H          0.4159049586        2.2905970653        0.6274646676
 H          1.3555474424        1.9040220967       -0.8183676771
 H         -0.0165756248       -0.1853813025       -1.1081657998
 H         -0.9127281248        1.3229860206       -1.2892580990
 H         -0.9424574288       -0.4894849790        1.1746335299
 H         -1.7636450058        1.0937678974        1.0595286910
 H          2.5518231578        1.2476853783        1.2402942793
 H          1.2123311042        0.1636230252        1.6955849214
  14
  -21.7533972500000       2.519808808432234E-002 !
 C          0.7412222281        1.2472055778        0.8335524332
 C         -0.4704565264        0.3117476170        0.7988964378
 C         -1.3127000616        0.5041201426       -0.4515021328
 Cl        -2.7883050149       -0.5242810551       -0.3706996460
 C          1.7923717659        0.9444054203       -0.2206519369
 Cl         2.4783012102       -0.7097687955       -0.0047928209
 H          1.2002564235        1.1770908503        1.8199555516
 H          0.4131312790        2.2766290713        0.6818960778
 H         -1.0898374818        0.5101054735        1.6743723404
 H         -0.1324310485       -0.7239903295        0.8547435004
 H         -1.6621415614        1.5307136288       -0.5464663433
 H         -0.7883416993        0.1965922219       -1.3533385821
 H          1.3862424723        0.9733618589       -1.2285851434
 H          2.6347845819        1.6280564287       -0.1381247324
  14
  -21.7533965900000       2.518049566713949E-002 !
 C          0.4695519772        0.3112940685       -0.8013694358
 C         -0.7419331360        1.2468053713       -0.8370061151
 C         -1.7927260459        0.9464388269        0.2183070431
 Cl        -2.4742222522       -0.7102799818        0.0084430700
 C          1.3057750131        0.4972036836        0.4540657842
 Cl         2.7879248620       -0.5213703357        0.3693604670
 H          1.0925652243        0.5142064480       -1.6733966421
 H          0.1317106101       -0.7241548900       -0.8635364412
 H         -1.2011585816        1.1748061221       -1.8232810962
 H         -0.4136082638        2.2765035573       -0.6872080334
 H         -1.3868395983        0.9806412860        1.2261360064
 H         -2.6367707901        1.6277465185        0.1328659600
 H          1.6481100264        1.5251240949        0.5597709253
 H          0.7802192620        0.1776462155        1.3509241681
  14
  -21.7531997700000       2.044617461648876E-002 !
 C          0.6590823799        1.5948189024       -0.0141358851
 C         -0.6259851514        1.2634362351        0.7475891225
 C         -1.7944935775        0.8430001686       -0.1304560853
 Cl        -1.7253777321       -0.9017330775       -0.5961369649
 C          1.3489884669        0.3951511772       -0.6386946704
 Cl         1.8993042040       -0.7677577586        0.6226967487
 H          1.3531208219        2.0789482139        0.6740285148
 H          0.4334612074        2.2955303534       -0.8198166589
 H         -0.9392045686        2.1605967235        1.2838505420
 H         -0.4225124993        0.4875855583        1.4867984534
 H         -2.7377391469        0.9528329162        0.4006303058
 H         -1.8213689380        1.4032263572       -1.0629025279
 H          0.6853333932       -0.1644129550       -1.2936258996
 H          2.2455828511        0.6945074084       -1.1777911430
  14
  -21.7531997000000       2.044466015005338E-002 !
 C          0.6263225419        1.2637502693       -0.7477083027
 C         -0.6594298677        1.5955051419        0.0127266969
 C         -1.3493821527        0.3963767320        0.6382598263
 Cl        -1.8980332395       -0.7685058657       -0.6220409842
 C          1.7939480160        0.8431090949        0.1314113232
 Cl         1.7245036190       -0.9019434011        0.5958792653
 H          0.9402910818        2.1607818950       -1.2837308173
 H          0.4233636248        0.4879048217       -1.4870730912
 H         -1.3532012186        2.0785065713       -0.6765132011
 H         -0.4346000522        2.2972736261        0.8177421509
 H         -0.6859621267       -0.1620089077        1.2944009519
 H         -2.2466110150        0.6960062136        1.1762362441
 H          2.7378278095        0.9534260372       -0.3983904283
 H          1.8195725704        1.4028146038        1.0641663534
  14
  -21.7531989700000       2.042887311168979E-002 !
 C          0.4543077702        1.2627073481        0.8611609769
 C         -0.6397716272        1.5930773378       -0.1562775025
 C         -1.1841039716        0.3922792176       -0.9092507989
 Cl        -1.9912787725       -0.7658492566        0.2103714865
 C          1.7828603703        0.8429438492        0.2515421735
 Cl         1.8145948583       -0.9014341599       -0.2191392863
 H          0.0987756506        0.4870431302        1.5406519193
 H          0.6462014943        2.1600906212        1.4513768777
 H         -0.2475217701        2.2912438798       -0.8977670779
 H         -1.4629984112        2.0798965963        0.3680443849
 H         -1.9456238067        0.6909111501       -1.6269327253
 H         -0.3978090789       -0.1701835281       -1.4070081100
 H          2.0073159703        1.4039174418       -0.6533203186
 H          2.5914343874        0.9525841974        0.9712095836
  14
  -21.7531988100000       2.042541456800107E-002 !
 C          0.6404429920        1.5940430996        0.1558123673
 C         -0.4543651545        1.2636979480       -0.8609297964
 C         -1.7823854313        0.8429546930       -0.2506347208
 Cl        -1.8136982648       -0.9019100079        0.2184088623
 C          1.1842939532        0.3932285230        0.9091866044
 Cl         1.9898658499       -0.7665522158       -0.2099200364
 H          0.2488593048        2.2926855957        0.8971974863
 H          1.4637185521        2.0802345838       -0.3690596702
 H         -0.0990763465        0.4883554422       -1.5409337267
 H         -0.6469040988        2.1612849553       -1.4507030634
 H         -2.0061623337        1.4028323542        0.6550965199
 H         -2.5917150070        0.9532576801       -0.9693385493
 H          1.9465573892        0.6918163829        1.6261257564
 H          0.3978697427       -0.1682540460        1.4079127078
  14
  -21.7531912000000       2.026159201356109E-002 !
 C          0.7937012493        1.4133003924        0.7568137969
 C         -0.5840481686        1.1962396908        0.1241800308
 C         -0.9901883787       -0.2673015880        0.0859663893
 Cl        -2.6870711600       -0.4246582843       -0.4899075995
 C          1.9589860180        0.8903291381       -0.0673002408
 Cl         2.1966201643       -0.8875345476        0.1272226750
 H          0.8195748871        0.9666297266        1.7511422323
 H          0.9414207214        2.4885530445        0.8678584412
 H         -0.5915905194        1.5998815489       -0.8891584350
 H         -1.3222615314        1.7460581809        0.7098967100
 H         -0.3844138026       -0.8482139759       -0.6052767671
 H         -0.9607986876       -0.7179517882        1.0767808289
 H          1.8100021378        1.0623251885       -1.1313960450
 H          2.8964579305        1.3376653077        0.2566493409
  14
  -21.7531910900000       2.025923367251788E-002 !
 C          0.5840263325        1.1963708603       -0.1243396833
 C         -0.7937102778        1.4133480495       -0.7569722440
 C         -1.9590106854        0.8903630849        0.0672397115
 Cl        -2.1965920716       -0.8875216341       -0.1270127875
 C          0.9900122505       -0.2672395674       -0.0854560364
 Cl         2.6871402230       -0.4247726796        0.4896318150
 H          0.5915401901        1.6004657903        0.8888263264
 H          1.3222649748        1.7459422553       -0.7102982052
 H         -0.8193465862        0.9666744962       -1.7513166222
 H         -0.9413303223        2.4886158244       -0.8681010321
 H         -1.8102445389        1.0623338431        1.1313705308
 H         -2.8965467756        1.3374840718       -0.2567955665
 H          0.3846318205       -0.8477218171        0.6064823747
 H          0.9599832730       -0.7185522270       -1.0759159123
  14
  -21.7531887300000       2.020870260431488E-002 !
 C          0.8370605584        1.5784724510        0.0888109582
 C         -0.6005427485        1.1344268551        0.3747109244
 C         -0.9638434581       -0.1667623281       -0.3204557010
 Cl        -2.7127801026       -0.5221609952       -0.0953594161
 C          1.9079836674        0.6975819219        0.7115381635
 Cl         2.2218371020       -0.7930120354       -0.2552450831
 H          0.9647400279        2.5775256213        0.5084106836
 H          0.9978176592        1.6436248965       -0.9876769527
 H         -1.2779777241        1.9152264257        0.0257210314
 H         -0.7439895038        1.0217445049        1.4501691960
 H         -0.8000444635       -0.1069385054       -1.3952964006
 H         -0.4298706627       -1.0200805943        0.0905651867
 H          2.8640473345        1.2155769308        0.7500651177
 H          1.6246716425        0.3602126136        1.7065139976
  14
  -21.7531885500000       2.020485371679768E-002 !
 C          0.6004102868        1.1348766674       -0.3740564252
 C         -0.8373356620        1.5785794312       -0.0884094853
 C         -1.9076868387        0.6974380810       -0.7117414116
 Cl        -2.2219822989       -0.7930355825        0.2550880792
 C          0.9638757319       -0.1669788554        0.3198425565
 Cl         2.7129571372       -0.5222148433        0.0954257459
 H          1.2774410674        1.9155155615       -0.0239691561
 H          0.7444277329        1.0234565478       -1.4495731142
 H         -0.9652509702        2.5777051070       -0.5076894754
 H         -0.9983326082        1.6433550830        0.9880444552
 H         -2.8637357354        1.2154155143       -0.7507691339
 H         -1.6238230474        0.3600885821       -1.7065739997
 H          0.7995432326       -0.1083029583        1.3946218032
 H          0.4301511417       -1.0199598874       -0.0922287598
  14
  -21.7529481700000       1.566695915845967E-002 !
 C          0.7085864688        0.8300077519        0.2912125634
 C         -0.7085323972        0.8294089668       -0.2925271418
 C         -1.5464624366       -0.3244425799        0.2339297304
 Cl        -3.2325375720       -0.1982701244       -0.3855256159
 C          1.5462072068       -0.3252360530       -0.2327268875
 Cl         3.2326237238       -0.1978314240        0.3855533963
 H          0.6601574239        0.7813709694        1.3795457215
 H          1.1952195309        1.7667092011        0.0173347864
 H         -0.6601174458        0.7774491414       -1.3806441286
 H         -1.1947473441        1.7671819579       -0.0215716902
 H         -1.1780535398       -1.2903168830       -0.1030415884
 H         -1.6190649750       -0.3039978842        1.3196835421
 H          1.1778193721       -1.2899270049        0.1077390138
 H          1.6181537326       -0.3082923362       -1.3186913425
  14
  -21.7529445800000       1.560755455023330E-002 !
 C          0.7363890542        0.8299869453       -0.2129105018
 C         -0.7362720232        0.8305774399        0.2115131053
 C         -1.5111142455       -0.3251992984       -0.4005599996
 Cl        -3.2554201373       -0.1980375563        0.0281658657
 C          1.5113186735       -0.3240468322        0.4023235768
 Cl         3.2552847786       -0.1987105789       -0.0283285433
 H          1.1897785977        1.7675988672        0.1101908481
 H          0.8079001170        0.7786115774       -1.2997893158
 H         -1.1896017728        1.7672559641       -0.1144131173
 H         -0.8078653093        0.7823661948        1.2985393812
 H         -1.4633796720       -0.3083365726       -1.4878105386
 H         -1.1820026665       -1.2898391222       -0.0219601208
 H          1.4644999837       -0.3037694310        1.4895610080
 H          1.1816012367       -1.2897969795        0.0270403644
  14
  -21.7513698000000       2.948601501336616E-003 !
 C          0.7639658481        1.7005100336        0.0469878574
 C         -0.7639474813        1.7004802319       -0.0469277832
 C         -1.3630168327        0.5250835064       -0.8048499341
 Cl        -1.6288989363       -0.9047820237        0.2609564300
 C          1.3630311875        0.5250788204        0.8048382057
 Cl         1.6288852899       -0.9047734227       -0.2609761165
 H          1.0620217893        2.6092884051        0.5722589800
 H          1.1947186665        1.7376540541       -0.9541787588
 H         -1.0619692681        2.6092687150       -0.5721840567
 H         -1.1947008311        1.7376111859        0.9542387642
 H         -2.3483052824        0.7701213555       -1.1959396794
 H         -0.7126491900        0.1870867031       -1.6095375897
 H          2.3483174154        0.7701007866        1.1959336741
 H          0.7126567812        0.1870697748        1.6095250189
  14
  -21.7513687100000       2.945202449569294E-003 !
 C          0.7479978613        1.7003920673        0.1624629983
 C         -0.7479058532        1.7006059452       -0.1624882049
 C         -1.5305261528        0.5256905329        0.4049165787
 Cl        -1.4977206326       -0.9051177725       -0.6918634506
 C          1.5307483159        0.5256287110       -0.4051170590
 Cl         1.4975939721       -0.9049229401        0.6919490052
 H          0.8903961463        1.7365784834        1.2430541737
 H          1.1775609217        2.6095748387       -0.2611047452
 H         -0.8902944849        1.7368342931       -1.2430686203
 H         -1.1773907454        2.6098254980        0.2611319971
 H         -1.1233301739        0.1882650371        1.3562630883
 H         -2.5848470988        0.7711672175        0.5136269744
 H          1.1234708081        0.1881308902       -1.3564286790
 H          2.5851460379        0.7710150303       -0.5137941448
