  14
        -21.75469573
 C          0.3608894481        0.8582235482        0.6735016550
 C         -0.3608947759        0.8582505148       -0.6734973859
 C         -1.8704192788        0.8477675857       -0.5211400908
 Cl        -2.4401604915       -0.7003499080        0.2083094457
 C          1.8704132856        0.8477570050        0.5211541850
 Cl         2.4401650020       -0.7003415487       -0.2083179352
 H          0.0460106946       -0.0104528388        1.2536907751
 H          0.0914946676        1.7563466163        1.2320893112
 H         -0.0460031448       -0.0104133886       -1.2537011664
 H         -0.0915108900        1.7563959991       -1.2320598790
 H         -2.2133447696        1.6369709790        0.1450310576
 H         -2.3685369731        0.9219299458       -1.4854073098
 H          2.2133321318        1.6369905354       -0.1449864062
 H          2.3685345349        0.9218771766        1.4854234038
