  14
    -0.000472 !GC
 C          0.0000000000        0.0000000000        0.0000000000
 C          1.3785537060        0.0000000000        0.0000000000
 C          2.0922237202        1.2037177098        0.0000000000
 C          1.3752677190        2.4048024477        0.0008956428
 C         -0.0035753479        2.3756401527        0.0016081308
 C         -0.7142062613        1.1891382913        0.0007630241
 Cl        -0.8758614678        3.8895074752        0.0041162730
 N          3.4658304323        1.2097410509        0.0056352974
 H         -0.5363052677       -0.9361359258        0.0019224985
 H          1.9197148681       -0.9329917496        0.0030626818
 H          1.8979570020        3.3479642252        0.0031672174
 H         -1.7914919766        1.1940827922        0.0067258823
 H          3.8972513535        0.4270122434       -0.4617665152
 H          3.8924248329        1.9966746019       -0.4576115261
  14
    -0.000472 !GC
 C          0.0000000000        0.0000000000        0.0000000000
 C          1.3780216653        0.0000000000        0.0000000000
 C          2.0922553747        1.2047365650        0.0000000000
 C          1.3733629693        2.4061244866        0.0071753055
 C         -0.0050161824        2.3752892546        0.0048793956
 C         -0.7155355133        1.1885135145        0.0048476930
 Cl        -0.8784448074        3.8884455738        0.0187445377
 N          3.4437381202        1.2206145170       -0.1866477383
 H         -0.5358520169       -0.9364686334        0.0039420234
 H          1.9189489250       -0.9333462819       -0.0054060521
 H          1.8954211846        3.3498425394        0.0060592185
 H         -1.7927987843        1.1931175971        0.0092299988
 H          3.8855824944        0.3681925185       -0.4835405693
 H          3.8568678962        2.0791274865       -0.5071001668
