  14
  -23.3788366800000       0.500092592047714      !
 C          0.8665959612       -1.8248258491       -0.0014480718
 C          1.8808421964       -0.8917793190        0.0068512282
 C          1.5911764761        0.4784429251        0.0109448485
 C          0.2487242390        0.8759394122        0.0091627883
 C         -0.7448167397       -0.0798549173        0.0001247072
 C         -0.4646834184       -1.4344175586       -0.0044019877
 Cl        -2.4122332388        0.4428069163       -0.0006579653
 N          2.5887607174        1.4077568344       -0.0437793577
 H          1.1064741559       -2.8767812879       -0.0028935750
 H          2.9109918240       -1.2128307353        0.0079051001
 H         -0.0063440065        1.9238280936        0.0119069011
 H         -1.2609022651       -2.1599998433       -0.0084750345
 H          2.3532627609        2.3587541759        0.1801198676
 H          3.5184753978        1.1058552783        0.1899323618
  14
  -23.3788363300000       0.499907407952286      !
 C          0.8666207726       -1.8247522097        0.0132330519
 C          1.8808023723       -0.8918664150       -0.0102518797
 C          1.5910930856        0.4783067012       -0.0255022691
 C          0.2486352769        0.8758507699       -0.0190783231
 C         -0.7447930418       -0.0798139024        0.0046872295
 C         -0.4646205603       -1.4342876109        0.0204512609
 Cl        -2.4121896289        0.4428448950        0.0128478651
 N          2.5889501164        1.4080326814        0.0127535752
 H          1.1064941071       -2.8766904475        0.0219413637
 H          2.9109168550       -1.2130184306       -0.0160707707
 H         -0.0065214108        1.9236497780       -0.0284531842
 H         -1.2608247670       -2.1598281720        0.0333684385
 H          3.5170624523        1.1037044052       -0.2243272247
 H          2.3518660094        2.3566421050       -0.2194426268
