  15
    -0.232158 !GC
 C          0.0000000000        0.0000000000        0.0000000000
 C          1.4017092737        0.0000000000        0.0000000000
 C          2.1048686231        1.1774390171        0.0000000000
 C          1.4461637510        2.4183181333        0.0006219060
 C          0.0268676720        2.4114563113        0.0006893461
 C         -0.6755984445        1.1881048027        0.0010348044
 N         -0.7169711388        3.5876383447        0.0003195363
 O         -1.9615477294        3.5332976938       -0.0001512430
 O         -0.1314713439        4.6622812399       -0.0049177922
 O          2.2755147876        3.4485883979        0.0009216347
 H         -0.5406887321       -0.9313525012       -0.0006711219
 H          1.9344743859       -0.9372142844       -0.0014474238
 H          3.1802385541        1.2245096776       -0.0013813166
 H         -1.7539524076        1.2287896854        0.0042791339
 H          3.2212030191        3.1361684099        0.0026262076
  15
    -0.132105 !GC
 C          0.0000000000        0.0000000000        0.0000000000
 C          1.4016981711        0.0000000000        0.0000000000
 C          2.1047870270        1.1774631851        0.0000000000
 C          1.4460874418        2.4183682073        0.0015032115
 C          0.0268349263        2.4115574659        0.0018007747
 C         -0.6755719842        1.1881479696        0.0015918074
 N         -0.7169613176        3.5878035650        0.0022368274
 O         -0.0947065395        4.6740309557        0.0152121707
 O         -1.9345257117        3.5605961420       -0.0036527294
 O          2.2755353888        3.4485432833       -0.0009660804
 H         -0.5406749243       -0.9314149083       -0.0019376155
 H          1.9344508707       -0.9371811663       -0.0042857775
 H          3.1801176780        1.2245192089       -0.0033016674
 H         -1.7539210160        1.2286795313        0.0040082092
 H          3.2211445592        3.1357392530       -0.0007907535
  15
    -0.126854 !GC
 C          0.0000000000        0.0000000000        0.0000000000
 C          1.4016212100        0.0000000000        0.0000000000
 C          2.1046821788        1.1774298752        0.0000000000
 C          1.4460825006        2.4183806888        0.0001138166
 C          0.0267782269        2.4116210198       -0.0004684738
 C         -0.6755641327        1.1881569798       -0.0000915746
 N         -0.7171332786        3.5875571630       -0.0018582740
 O         -0.1530865345        4.6826970669       -0.0051248188
 O         -1.9522432721        3.5050625458        0.0033037824
 O          2.2754799093        3.4485791767        0.0011038886
 H         -0.5407803567       -0.9312732537       -0.0002381006
 H          1.9345482083       -0.9371433257       -0.0003413228
 H          3.1798424395        1.2245724747        0.0003044209
 H         -1.7538721139        1.2289074226        0.0011033905
 H          3.2211611498        3.1360739931        0.0036267263
  15
    -0.056549 !GC
 C          0.0000000000        0.0000000000        0.0000000000
 C          1.3974741438        0.0000000000        0.0000000000
 C          2.1003332164        1.1813146777        0.0000000000
 C          1.4421351250        2.4189646773        0.0007939410
 C          0.0267479623        2.4111030247        0.0016034480
 C         -0.6741374077        1.1926254017        0.0017320167
 N         -0.7187987453        3.5986295673        0.0028057828
 O         -1.9671773930        3.5156402522       -0.0009982825
 O         -0.1563268328        4.6690521591        0.0025339175
 O          2.1936247174        3.5128472818       -0.0000403715
 H         -0.5432972869       -0.9298424213       -0.0006973018
 H          1.9320198099       -0.9362652800       -0.0019180764
 H          3.1781312244        1.1980933137       -0.0026164308
 H         -1.7522681987        1.2346182852        0.0055682280
 H          1.6380971574        4.3257774821       -0.0010966167
