  8
  -10.6423065300000       0.333381541204527      !
 C         -2.5715799126       -0.4439680362        0.0000004938
 C         -1.5748768875        0.6900375592        0.0000009398
 I          0.4862951172       -0.0268891172        0.0000000708
 H         -2.4570365246       -1.0681199945        0.8832498016
 H         -3.5766605336       -0.0258167593       -0.0000122153
 H         -2.4570292391       -1.0681174422       -0.8832487451
 H         -1.6632492992        1.3076739099        0.8892049481
 H         -1.6632145389        1.3076541173       -0.8892197890
  8
  -10.6423063900000       0.333332155294684      !
 C         -2.5713921215       -0.4439755622       -0.0000168397
 C         -1.5749001437        0.6902670885       -0.0000163936
 I          0.4862792764       -0.0269117315       -0.0000172627
 H         -2.4582091292       -1.0674019374       -0.8839310112
 H         -2.4557722446       -1.0688943918        0.8823136858
 H         -3.5765685123       -0.0260153475        0.0019784717
 H         -1.6616835737        1.3064049214        0.8903344164
 H         -1.6649228605        1.3093824178       -0.8881260914
  8
  -10.6423062600000       0.333286303500790      !
 C         -2.5724698123       -0.4439905441        0.0000035606
 C         -1.5749683862        0.6893740490        0.0000040059
 I          0.4864071813       -0.0268149231        0.0000031374
 H         -3.5775975511       -0.0255482837       -0.0001536745
 H         -2.4581668787       -1.0681477705       -0.8830949648
 H         -2.4583046618       -1.0684765648        0.8828813368
 H         -1.6623014316        1.3073494111        0.8890813293
 H         -1.6632345564        1.3069303187       -0.8891991993
