  8
        -10.64230653
 C         -2.5715799126       -0.4439680362        0.0000004938
 C         -1.5748768875        0.6900375592        0.0000009398
 I          0.4862951172       -0.0268891172        0.0000000708
 H         -2.4570365246       -1.0681199945        0.8832498016
 H         -3.5766605336       -0.0258167593       -0.0000122153
 H         -2.4570292391       -1.0681174422       -0.8832487451
 H         -1.6632492992        1.3076739099        0.8892049481
 H         -1.6632145389        1.3076541173       -0.8892197890
