  13
  -14.7125453000000       0.118552231396536      !
 C         -2.4084845019        0.0086004510        0.0001719452
 C         -0.9733175473        0.5201651306       -0.0001834921
 C          0.0296793123       -0.6390657343       -0.0000442327
 C          1.3956908470       -0.1577773909       -0.0001639483
 C          2.5152845854        0.2656802698        0.0001858896
 H         -2.5980159464       -0.5992680976       -0.8820064604
 H         -2.5977253426       -0.5985660739        0.8828854167
 H         -3.1078860991        0.8409531143       -0.0000257582
 H         -0.8027590209        1.1417223555       -0.8820663505
 H         -0.8023943712        1.1422158298        0.8812838499
 H         -0.1256776031       -1.2613580358       -0.8857339691
 H         -0.1256517706       -1.2611592735        0.8857924861
 H          3.5007582689        0.6240263671        0.0002740059
  13
  -14.7125453000000       0.118552231396536      !
 C         -2.4085119844        0.0086471957        0.0000029794
 C         -0.9733138839        0.5201288475       -0.0000014378
 C          0.0296795187       -0.6390946145       -0.0000076735
 C          1.3956982085       -0.1578242533       -0.0000139460
 C          2.5153056976        0.2657394424        0.0000120257
 H         -3.1079077883        0.8410064839        0.0000124944
 H         -2.5979295748       -0.5988742338       -0.8824346685
 H         -2.5978886115       -0.5988443310        0.8824644595
 H         -0.8025677728        1.1419210736       -0.8816781874
 H         -0.8025220080        1.1419250055        0.8816651527
 H         -0.1256952120       -1.2612540343       -0.8857870527
 H         -0.1256909362       -1.2612932148        0.8857469276
 H          3.5007920936        0.6240522245        0.0001068250
  13
  -14.7125452900000       0.118550976889472      !
 C         -2.4084754066        0.0087342867       -0.0002278213
 C         -0.9732423066        0.5201192544        0.0002401107
 C          0.0296543087       -0.6391906005        0.0000937825
 C          1.3957109718       -0.1580097863        0.0000672622
 C          2.5151982315        0.2659318683       -0.0001608625
 H         -2.5980798293       -0.5991223769        0.8819340328
 H         -3.1078097861        0.8411468696       -0.0000150843
 H         -2.5977589564       -0.5984009011       -0.8829556208
 H         -0.8022384739        1.1421655768       -0.8812084670
 H         -0.8026165371        1.1416387983        0.8821346949
 H         -0.1258078870       -1.2613017396       -0.8857081993
 H         -0.1257129695       -1.2614179346        0.8858284470
 H          3.5007547366        0.6240688514       -0.0001584153
  13
  -14.7124518800000       0.107393222261727      !
 C         -1.6855796078        0.6137864105       -0.6282477679
 C         -1.1978363407       -0.0785029375        0.6384303345
 C          0.0387166337       -0.9461338786        0.3733168114
 C          1.1795982615       -0.1462814484       -0.0240522504
 C          2.1105646806        0.5343772582       -0.3448842082
 H         -1.9672552116       -0.1198586942       -1.3808307282
 H         -2.5507186724        1.2365180832       -0.4138338013
 H         -0.8987924384        1.2424072258       -1.0398733009
 H         -0.9540153865        0.6720439815        1.3935418784
 H         -1.9915668323       -0.7136081592        1.0372275684
 H         -0.1800923664       -1.6663183824       -0.4198191509
 H          0.3016877936       -1.5008046541        1.2780416510
 H          2.9325581825        1.1207669347       -0.6279875101
  13
  -14.7124518800000       0.107393222261727      !
 C         -1.6855084265        0.6133583740        0.6286649082
 C         -1.1978709325       -0.0780764763       -0.6385302760
 C          0.0387034035       -0.9458548808       -0.3740312067
 C          1.1796191259       -0.1463170693        0.0239353829
 C          2.1105092609        0.5341383068        0.3454228687
 H         -1.9671556984       -0.1207583804        1.3808018137
 H         -0.8987234506        1.2417367721        1.0406651054
 H         -2.5506571537        1.2362194315        0.4147122750
 H         -1.9916418603       -0.7128798312       -1.0377434794
 H         -0.9540163982        0.6729593439       -1.3931405538
 H          0.3016315685       -1.4998695949       -1.2791631235
 H         -0.1801546681       -1.6666187725        0.4185634151
 H          2.9326561423        1.1203234033        0.6285448468
  13
  -14.7124518700000       0.107392085838309      !
 C         -1.6854184368        0.6133996446        0.6286601333
 C         -1.1977839738       -0.0780370840       -0.6385332672
 C          0.0386964688       -0.9459583091       -0.3740292435
 C          1.1796436440       -0.1464809263        0.0239200540
 C          2.1103185606        0.5342816604        0.3454247505
 H         -2.5503919337        1.2364950411        0.4146802217
 H         -1.9673472613       -0.1207663840        1.3806332422
 H         -0.8985424284        1.2415278987        1.0408739448
 H         -1.9915973353       -0.7127080913       -1.0378807164
 H         -0.9537936770        0.6730492605       -1.3930443493
 H          0.3016085046       -1.4999927220       -1.2791542637
 H         -0.1802390864       -1.6667088504        0.4185528652
 H          2.9321960409        1.1207318150        0.6288087402
  13
  -14.7124518500000       0.107389813027349      !
 C         -1.6856897290        0.6136900188       -0.6282870091
 C         -1.1977396795       -0.0783388475        0.6384655747
 C          0.0387039534       -0.9461253583        0.3733406665
 C          1.1797072902       -0.1464391900       -0.0240647428
 C          2.1104995932        0.5344443674       -0.3449019853
 H         -0.8988884987        1.2419256559       -1.0404731498
 H         -1.9678788420       -0.1201490690       -1.3804742305
 H         -2.5505614145        1.2367678763       -0.4138535658
 H         -0.9535952067        0.6724234235        1.3932441172
 H         -1.9914583601       -0.7131923567        1.0377105182
 H         -0.1803048103       -1.6662582024       -0.4197831424
 H          0.3016079709       -1.5008590218        1.2780452949
 H          2.9326721118        1.1206597868       -0.6278251251
  13
  -14.7124518500000       0.107389813027349      !
 C         -1.6855461884        0.6132486261        0.6287567080
 C         -1.1977778444       -0.0779032757       -0.6385647292
 C          0.0387460180       -0.9458514364       -0.3743042381
 C          1.1794475260       -0.1464359753        0.0245239798
 C          2.1105153548        0.5341856618        0.3451798297
 H         -0.8986882946        1.2413749916        1.0410682286
 H         -2.5506668957        1.2362679435        0.4149465843
 H         -1.9672986065       -0.1211312133        1.3805995033
 H         -1.9915371221       -0.7125359948       -1.0381194012
 H         -0.9537484781        0.6733953343       -1.3928683536
 H          0.3019270843       -1.4995615708       -1.2795696729
 H         -0.1803363761       -1.6668953954        0.4179616913
 H          2.9330922854        1.1202537330        0.6276741361
  13
  -14.7124518200000       0.107386403900996      !
 C         -1.6857495996        0.6136157726       -0.6282974358
 C         -1.1977736164       -0.0783399445        0.6384806798
 C          0.0386972589       -0.9460062523        0.3733754345
 C          1.1797044467       -0.1463549090       -0.0241153547
 C          2.1106256121        0.5343334084       -0.3448778672
 H         -2.5506777586        1.2365941354       -0.4138168741
 H         -0.8989817067        1.2419485802       -1.0404228935
 H         -1.9678320529       -0.1202248036       -1.3805214134
 H         -0.9537385732        0.6724449459        1.3932777950
 H         -1.9914468627       -0.7133225732        1.0376874671
 H         -0.1802105669       -1.6662206266       -0.4197145237
 H          0.3015763678       -1.5006690885        1.2781518306
 H          2.9326339253        1.1205639386       -0.6282050157
