  11
    -0.146306 !GC
 C          0.0000000000        0.0000000000        0.0000000000
 C          1.5134822345        0.0000000000        0.0000000000
 C          2.1098822198        1.3908983885        0.0000000000
 Br         2.1677865016       -0.9845148728       -1.6292395614
 H         -0.4127217395       -1.0052252922       -0.0574274864
 H         -0.3992120084        0.4867597555        0.8867171991
 H         -0.3157444359        0.5605696031       -0.8776999051
 H          1.9074890855       -0.5978573448        0.8234145394
 H          1.7967707872        1.9912747678       -0.8508580718
 H          3.1916669943        1.2808507393       -0.0305420298
 H          1.8377460019        1.9154184635        0.9138502775
  11
    -0.145200 !GC
 C          0.0000000000        0.0000000000        0.0000000000
 C          1.5132980326        0.0000000000        0.0000000000
 C          2.1117674597        1.3900903948        0.0000000000
 Br         2.1534105731       -0.9834324892       -1.6345043823
 H         -0.4197690229        0.4622459169        0.8904946670
 H         -0.3625418789        0.5371633459       -0.8733332535
 H         -0.3459302212       -1.0301244612       -0.0559882514
 H          1.9086770171       -0.6013980779        0.8201944973
 H          1.8244126142        1.9496929560        0.8869446889
 H          1.7213902200        1.9023350476       -0.8769578498
 H          3.1979794192        1.3706086140       -0.0588413336
  11
    -0.134036 !GC
 C          0.0000000000        0.0000000000        0.0000000000
 C          1.5134865241        0.0000000000        0.0000000000
 C          2.1096212533        1.3909700943        0.0000000000
 Br         2.1618187531       -0.9832785524       -1.6325950902
 H         -0.3751781915        0.4551491850        0.9145093681
 H         -0.4288056145        0.5255363721       -0.8500289316
 H         -0.3243901418       -1.0378758583       -0.0320235182
 H          1.9077690292       -0.5976287098        0.8235084167
 H          3.1959845601        1.3512578066       -0.0347802372
 H          1.8086342542        1.9057165307        0.9099337902
 H          1.7545509396        1.9597671040       -0.8568046229
  11
    -0.132874 !GC
 C          0.0000000000        0.0000000000        0.0000000000
 C          1.5134581368        0.0000000000        0.0000000000
 C          2.1112696925        1.3902608266        0.0000000000
 Br         2.1602668571       -0.9868563268       -1.6305180688
 H         -0.4120895853       -1.0053403085       -0.0561067392
 H         -0.3995484159        0.4868544157        0.8861422289
 H         -0.3168358797        0.5593951733       -0.8779157071
 H          1.9078603554       -0.5988958468        0.8224395724
 H          3.1976527283        1.3494896685       -0.0358117455
 H          1.8112747218        1.9049864469        0.9103558839
 H          1.7559997250        1.9593324865       -0.8565166901
  11
    -0.132710 !GC
 C          0.0000000000        0.0000000000        0.0000000000
 C          1.5134167545        0.0000000000        0.0000000000
 C          2.1099033138        1.3907743657        0.0000000000
 Br         2.1598238827       -0.9816248853       -1.6339630220
 H         -0.3837701251        0.5517047495       -0.8555399801
 H         -0.3913852140       -1.0140959928       -0.0362580061
 H         -0.3538358264        0.4777755854        0.9110522538
 H          1.9083618104       -0.5989772870        0.8222292161
 H          1.8205825675        1.9501306774        0.8864505784
 H          1.7200039430        1.9022056610       -0.8777182471
 H          3.1962954204        1.3726585984       -0.0574734372
  11
    -0.132686 !GC
 C          0.0000000000        0.0000000000        0.0000000000
 C          1.5135439295        0.0000000000        0.0000000000
 C          2.1106770957        1.3905254256        0.0000000000
 Br         2.1674693921       -0.9876260016       -1.6275015240
 H         -0.3837826327        0.5484622132       -0.8576154106
 H         -0.3910833117       -1.0141110617       -0.0330986173
 H         -0.3546791031        0.4805940132        0.9092398421
 H          1.9072884484       -0.5971466757        0.8239181328
 H          1.7564196083        1.9594310665       -0.8570378482
 H          3.1971395525        1.3502607987       -0.0336414299
 H          1.8089951199        1.9051091951        0.9097764763
  11
    -0.056163 !GC
 C          0.0000000000        0.0000000000        0.0000000000
 C          1.5133495082        0.0000000000        0.0000000000
 C          2.1109910655        1.3903984574        0.0000000000
 Br         2.1540099279       -0.9829594159       -1.6350485669
 H         -0.4116941108       -1.0053014171       -0.0588612747
 H         -0.4001146845        0.4850258379        0.8871503612
 H         -0.3161936607        0.5612679222       -0.8769144850
 H          1.9085091286       -0.6003880778        0.8211121637
 H          1.8230860871        1.9498116525        0.8869083240
 H          1.7207663050        1.9025482022       -0.8771456182
 H          3.1972758487        1.3713388281       -0.0584785960
  11
    -0.053049 !GC
 C          0.0000000000        0.0000000000        0.0000000000
 C          1.5134307589        0.0000000000        0.0000000000
 C          2.1106588698        1.3905910650        0.0000000000
 Br         2.1671854915       -0.9849874526       -1.6286984328
 H         -0.4207950341        0.4634306772        0.8896903198
 H         -0.3616229525        0.5358888405       -0.8746079998
 H         -0.3454893780       -1.0304762642       -0.0550035487
 H          1.9076571175       -0.5988709536        0.8225001654
 H          1.7978240178        1.9912974717       -0.8507033165
 H          3.1922861848        1.2796266959       -0.0309479225
 H          1.8392520134        1.9152768921        0.9139176426
  11
    -0.052131 !GC
 C          0.0000000000        0.0000000000        0.0000000000
 C          1.5136186196        0.0000000000        0.0000000000
 C          2.1120984027        1.3900597001        0.0000000000
 Br         2.1699945043       -0.9892416155       -1.6252794435
 H         -0.3475035605       -1.0298801832       -0.0529025314
 H         -0.4200869344        0.4655288105        0.8887774747
 H         -0.3615426260        0.5345834590       -0.8753007933
 H          1.9072909214       -0.5978644030        0.8233788400
 H          1.8505778593        1.9595997022        0.8889212150
 H          1.7644462599        1.9340052548       -0.8751482102
 H          3.1954541346        1.3012279330       -0.0526905927
