  9
  -10.5717909600000       0.111118165411547      !
 C         -1.3812967958       -0.5888547678       -0.0000001477
 S          0.0000013209        0.5922788729       -0.0000003832
 C          1.3812940794       -0.5888616275       -0.0000001390
 H         -1.3278782731       -1.2013977725        0.8948125840
 H         -1.3281197528       -1.2011438301       -0.8950028992
 H         -2.2925793093       -0.0014189708        0.0002059179
 H          1.3280948384       -1.2011620631        0.8950070985
 H          2.2925480618       -0.0013808321       -0.0001545736
 H          1.3279247845       -1.2013739383       -0.8948525200
  9
  -10.5717909600000       0.111118165411547      !
 C         -1.3812909257       -0.5888606647       -0.0000003036
 S          0.0000009401        0.5922855607       -0.0000005392
 C          1.3812882689       -0.5888677585       -0.0000002950
 H         -2.2925496286       -0.0013940470        0.0001481315
 H         -1.3279428005       -1.2013750801        0.8948450641
 H         -1.3280941732       -1.2011897627       -0.8949828406
 H          2.2925586123       -0.0014148800       -0.0001374477
 H          1.3279399433       -1.2013926820       -0.8948391958
 H          1.3280897990       -1.2011803817        0.8949905742
  9
  -10.5717909600000       0.111118165411547      !
 C         -1.3812940763       -0.5888570890        0.0000004233
 S          0.0000010828        0.5922812223        0.0000001877
 C          1.3812908390       -0.5888639359        0.0000004319
 H         -1.3279309036       -1.2013818697        0.8948347857
 H         -1.3280788271       -1.2011587859       -0.8949938909
 H         -2.2925639282       -0.0014058118        0.0001469114
 H          1.3279456039       -1.2013472716       -0.8948679017
 H          1.3280790666       -1.2011974905        0.8949800791
 H          2.2925531183       -0.0014057478       -0.0001161449
  9
  -10.5717909300000       0.111114637927581      !
 C         -1.3814534094       -0.5887490240        0.0000017417
 S         -0.0000066263        0.5921806490        0.0000015062
 C          1.3814567709       -0.5887621470        0.0000017504
 H         -1.3281279511       -1.2012373616        0.8948821422
 H         -1.3280593227       -1.2010511467       -0.8949915653
 H         -2.2927160028       -0.0012397009        0.0000006795
 H          2.2927129366       -0.0012931358        0.0001455252
 H          1.3282450008       -1.2010990687       -0.8949751091
 H          1.3281160783       -1.2012777528        0.8948488002
  9
  -10.5717909300000       0.111114637927581      !
 C         -1.3813227924       -0.5888378346       -0.0000006595
 S         -0.0000004473        0.5922646794       -0.0000008950
 C          1.3813220919       -0.5888462770       -0.0000006508
 H         -1.3274746470       -1.2019262846       -0.8944185789
 H         -2.2925890760       -0.0013919277       -0.0010015616
 H         -1.3285984242       -1.2005669745        0.8954093644
 H          1.3273535463       -1.2020563706        0.8943271702
 H          2.2925926547       -0.0013950363        0.0012302465
 H          1.3287385240       -1.2004739810       -0.8955025534
  9
  -10.5717909100000       0.111112286333747      !
 C         -1.3812266269       -0.5888930205        0.0000017995
 S          0.0000011818        0.5923101816        0.0000015640
 C          1.3812240961       -0.5889000121        0.0000018082
 H         -2.2924617537       -0.0013826726       -0.0012106078
 H         -1.3286043521       -1.2004649869        0.8955442384
 H         -1.3272639980       -1.2021150595       -0.8943343985
 H          1.3284410493       -1.2005440024       -0.8954730320
 H          1.3274229335       -1.2020498407        0.8944111225
 H          2.2924586814       -0.0014036204        0.0009699340
  9
  -10.5717909100000       0.111112286333747      !
 C         -1.3812890834       -0.5888593301        0.0000016590
 S         -0.0000100923        0.5922979114        0.0000014235
 C          1.3813054132       -0.5888781248        0.0000016677
 H         -1.3282016079       -1.2008733473       -0.8951725899
 H         -2.2925635595       -0.0013684701        0.0004688105
 H         -1.3277378697       -1.2017057505        0.8946087625
 H          1.3279148691       -1.2013473849       -0.8949391419
 H          1.3280677042       -1.2013461041        0.8950391736
 H          2.2926469334       -0.0015910547       -0.0000899393
  9
  -10.5717909000000       0.111111110555388      !
 C         -1.3814857579       -0.5887502436       -0.0000044774
 S         -0.0000114753        0.5921786501       -0.0000047129
 C          1.3815187934       -0.5887745891       -0.0000044687
 H         -2.2925494920       -0.0008984878        0.0003996199
 H         -1.3279667263       -1.2012245681        0.8949242734
 H         -1.3287208255       -1.2009583299       -0.8951314917
 H          1.3286935767       -1.2005536001        0.8953439771
 H          2.2929122637       -0.0012425706       -0.0010243899
 H          1.3276026024       -1.2020942236       -0.8942554585
  9
  -10.5717906400000       0.111080544687316      !
 C         -1.3807049153       -0.5891827287        0.0000099473
 S          0.0000036927        0.5925580259        0.0000097116
 C          1.3806984108       -0.5891871544        0.0000099559
 H         -1.3246055641       -1.2033897314       -0.8935126420
 H         -2.2919940206       -0.0015413747       -0.0039323408
 H         -1.3295530902       -1.1994970880        0.8965891737
 H          2.2918048799       -0.0015008739        0.0017119688
 H          1.3282901828       -1.2005385506       -0.8958426075
 H          1.3260176471       -1.2025032174        0.8944403313
